* Subcircuit 4002
.subckt 4002 net-_u1-pad1_ net-_u1-pad2_ net-_u1-pad3_ net-_u1-pad4_ net-_u1-pad5_ ? ? ? net-_u1-pad9_ net-_u1-pad10_ net-_u1-pad11_ net-_u1-pad12_ net-_u1-pad13_ ? 
* c:\users\bhargav\esim\src\subcircuitlibrary\4002\4002.cir
* u2  net-_u1-pad2_ net-_u1-pad3_ net-_u2-pad3_ d_or
* u3  net-_u1-pad5_ net-_u1-pad4_ net-_u3-pad3_ d_or
* u6  net-_u2-pad3_ net-_u3-pad3_ net-_u1-pad1_ d_nor
* u4  net-_u1-pad9_ net-_u1-pad10_ net-_u4-pad3_ d_or
* u5  net-_u1-pad11_ net-_u1-pad12_ net-_u5-pad3_ d_or
* u7  net-_u4-pad3_ net-_u5-pad3_ net-_u1-pad13_ d_nor
a1 [net-_u1-pad2_ net-_u1-pad3_ ] net-_u2-pad3_ u2
a2 [net-_u1-pad5_ net-_u1-pad4_ ] net-_u3-pad3_ u3
a3 [net-_u2-pad3_ net-_u3-pad3_ ] net-_u1-pad1_ u6
a4 [net-_u1-pad9_ net-_u1-pad10_ ] net-_u4-pad3_ u4
a5 [net-_u1-pad11_ net-_u1-pad12_ ] net-_u5-pad3_ u5
a6 [net-_u4-pad3_ net-_u5-pad3_ ] net-_u1-pad13_ u7
* Schematic Name: d_or, NgSpice Name: d_or
.model u2 d_or(fall_delay=1.0e-9 input_load=1.0e-12 rise_delay=1.0e-9 )
* Schematic Name: d_or, NgSpice Name: d_or
.model u3 d_or(fall_delay=1.0e-9 input_load=1.0e-12 rise_delay=1.0e-9 )
* Schematic Name: d_nor, NgSpice Name: d_nor
.model u6 d_nor(fall_delay=1.0e-9 input_load=1.0e-12 rise_delay=1.0e-9 )
* Schematic Name: d_or, NgSpice Name: d_or
.model u4 d_or(fall_delay=1.0e-9 input_load=1.0e-12 rise_delay=1.0e-9 )
* Schematic Name: d_or, NgSpice Name: d_or
.model u5 d_or(fall_delay=1.0e-9 input_load=1.0e-12 rise_delay=1.0e-9 )
* Schematic Name: d_nor, NgSpice Name: d_nor
.model u7 d_nor(fall_delay=1.0e-9 input_load=1.0e-12 rise_delay=1.0e-9 )
* Control Statements

.ends 4002