.MODEL DRB168MM200 D( IS=5.6001E-9 N=1.0413 RS=90.681E-3 IKF=2.9636E-3 XTI=2.0 EG=0.74 CJO=86.088E-12 M=0.4523 VJ=0.5 ISR=9.8101E-9 NR=1.3311 BV=200 TRS1=-3.7501E-3 )
