.subckt LT1010 VCC VEE VIN VOUT
.title KiCad schematic
Q1 Net-_Q1-Pad1_ /VIN /VEE 2N2907A
Q2 Net-_Q2-Pad1_ /VIN /VCC 2N2222
R1 Net-_Q1-Pad1_ /VCC 1k
Q3 /VOUT Net-_Q1-Pad1_ /VCC 2N2222
R2 Net-_Q2-Pad1_ /VEE 1k
Q4 /VOUT Net-_Q2-Pad1_ /VEE 2N2907A
.end
.ends