* Subcircuit ths4303
.subckt ths4303 net-_gm1-pad3_ net-_gm1-pad4_ net-_r5-pad1_ net-_r3-pad2_ net-_r4-pad2_ 
.title kicad schematic
r1 net-_gm1-pad4_ net-_gm1-pad3_ 1meg
gm1 net-_c1-pad1_ gnd net-_gm1-pad3_ net-_gm1-pad4_ 0.2
c1 net-_c1-pad1_ gnd 0.884p
r2 gnd net-_c1-pad1_ 100
e1 net-_e1-pad1_ gnd net-_c1-pad1_ gnd 1
r5 net-_r5-pad1_ net-_e1-pad1_ 50
r4 gnd net-_r4-pad2_ 1g
r3 gnd net-_r3-pad2_ 1g
* Control Statements

.ends ths4303