.MODEL PowerDiode D(
+ Vj=.75
+ Nbvl=14.976
+ Cjo=175p
+ Rs=.25
+ Isr=1.859n
+ Eg=1.11
+ M=.5516
+ Nbv=1.6989
+ N=1
+ Tbv1=-21.277u
+ bv=1800
+ Fc=.5
+ Ikf=0
+ Nr=2
+ Ibv=20.245m
+ Is=2.2E-15
+ Xti=3
+ Ibvl=1.9556m
)