.model 1N4148 D(IS=5.4320E-9 N=1.9701 RS=2.1233 IKF=8.0154 CJO=1.9768E-12 M=0.1 VJ=9.9900 BV=75.257 IBV=10 TT=25.949E-9)