* Subcircuit opto_isolator_switch
.subckt opto_isolator_switch net-_r1-pad1_ net-_f1-pad4_ net-_c1-pad1_ net-_c1-pad2_ 
* /home/bhargav/downloads/esim-1.1.2/src/subcircuitlibrary/opto_isolator_switch/opto_isolator_switch.cir
r1  net-_r1-pad1_ net-_f1-pad3_ 1000
* f1
r2  net-_c1-pad2_ net-_f1-pad4_ 1000
c1  net-_c1-pad1_ net-_c1-pad2_ 14n
Vf1 net-_f1-pad3_ net-_f1-pad4_ 0
f1 net-_c1-pad1_ net-_c1-pad2_ Vf1 3
* Control Statements

.ends opto_isolator_switch