.model Q2N2222  NPN( Is=14.34f Xti=3 Eg=1.11 Vaf=74.03 Bf=400 Ne=1.307 
+ Ise=14.34f Ikf=0.2847 Xtb=1.5 Br=6.092 Nc=2 Isc=0 Ikr=0 Rc=1 Cjc=7.306p 
+ Mjc=0.3416 Vjc=0.75 Fc=0.5 Cje=22.01p Mje=0.377 Vje=0.75 Tr=46.91n Tf=411.1p 
+ Itf=0.6 Vtf=1.7 Xtf=3 Rb=10)
