.MODEL J2N3822 NJF( Beta=1.1m Betatce=-.5 Rd=1  Rs=1  Lambda=4.09m Vto=-1.962 Vtotc=-2.5m Is=181.3f Isr=1.747p N=1 Nr=2 Xti=3 Alpha=2.543u Vk=152.2 Cgd=4p M=.3114 Pb=0.5 Fc=.5 Cgs=4.627p Kf=10.2E-18 Af=1 )
