*SPEF "ieee 1481-1999"
*DESIGN "Half_Adder"
*DATE "11:58:11 Monday May 11, 2026"
*VENDOR "The OpenROAD Project"
*PROGRAM "OpenROAD"
*VERSION "26Q2-892-g5cee43de60"
*DESIGN_FLOW "NAME_SCOPE LOCAL" "PIN_CAP NONE"
*DIVIDER /
*DELIMITER :
*BUS_DELIMITER []
*T_UNIT 1 NS
*C_UNIT 1 PF
*R_UNIT 1 OHM
*L_UNIT 1 HENRY

*NAME_MAP
*9 cout
*7 in1
*8 in2
*2 net1
*3 net2
*1 net3
*4 net4
*10 sum
*346 FILLER_0_0
*363 FILLER_0_107
*364 FILLER_0_115
*365 FILLER_0_119
*366 FILLER_0_121
*367 FILLER_0_129
*368 FILLER_0_137
*369 FILLER_0_145
*370 FILLER_0_149
*371 FILLER_0_151
*372 FILLER_0_159
*348 FILLER_0_16
*373 FILLER_0_167
*374 FILLER_0_175
*375 FILLER_0_179
*376 FILLER_0_181
*377 FILLER_0_189
*378 FILLER_0_197
*379 FILLER_0_205
*380 FILLER_0_209
*381 FILLER_0_211
*382 FILLER_0_219
*383 FILLER_0_227
*384 FILLER_0_235
*385 FILLER_0_239
*349 FILLER_0_24
*386 FILLER_0_241
*387 FILLER_0_249
*388 FILLER_0_257
*389 FILLER_0_265
*390 FILLER_0_269
*391 FILLER_0_271
*392 FILLER_0_279
*350 FILLER_0_28
*393 FILLER_0_287
*394 FILLER_0_295
*395 FILLER_0_299
*396 FILLER_0_301
*397 FILLER_0_309
*351 FILLER_0_31
*398 FILLER_0_317
*399 FILLER_0_325
*400 FILLER_0_329
*401 FILLER_0_331
*402 FILLER_0_339
*352 FILLER_0_39
*353 FILLER_0_47
*354 FILLER_0_55
*355 FILLER_0_59
*356 FILLER_0_61
*357 FILLER_0_69
*358 FILLER_0_77
*347 FILLER_0_8
*359 FILLER_0_85
*360 FILLER_0_89
*361 FILLER_0_91
*362 FILLER_0_99
*866 FILLER_10_0
*882 FILLER_10_107
*883 FILLER_10_115
*884 FILLER_10_123
*885 FILLER_10_131
*886 FILLER_10_139
*887 FILLER_10_147
*888 FILLER_10_149
*889 FILLER_10_151
*890 FILLER_10_159
*868 FILLER_10_16
*891 FILLER_10_167
*892 FILLER_10_175
*893 FILLER_10_183
*894 FILLER_10_191
*895 FILLER_10_199
*896 FILLER_10_207
*897 FILLER_10_209
*898 FILLER_10_211
*899 FILLER_10_219
*900 FILLER_10_227
*901 FILLER_10_235
*869 FILLER_10_24
*902 FILLER_10_243
*903 FILLER_10_251
*904 FILLER_10_259
*905 FILLER_10_267
*906 FILLER_10_269
*907 FILLER_10_271
*908 FILLER_10_279
*870 FILLER_10_28
*909 FILLER_10_287
*910 FILLER_10_295
*911 FILLER_10_303
*871 FILLER_10_31
*912 FILLER_10_311
*913 FILLER_10_319
*914 FILLER_10_327
*915 FILLER_10_329
*916 FILLER_10_331
*917 FILLER_10_339
*872 FILLER_10_39
*873 FILLER_10_47
*874 FILLER_10_55
*875 FILLER_10_63
*876 FILLER_10_71
*877 FILLER_10_79
*867 FILLER_10_8
*878 FILLER_10_87
*879 FILLER_10_89
*880 FILLER_10_91
*881 FILLER_10_99
*918 FILLER_11_0
*931 FILLER_11_101
*932 FILLER_11_109
*933 FILLER_11_117
*934 FILLER_11_119
*935 FILLER_11_121
*936 FILLER_11_129
*937 FILLER_11_137
*938 FILLER_11_145
*939 FILLER_11_153
*920 FILLER_11_16
*940 FILLER_11_161
*941 FILLER_11_169
*942 FILLER_11_177
*943 FILLER_11_179
*944 FILLER_11_181
*945 FILLER_11_189
*946 FILLER_11_197
*947 FILLER_11_205
*948 FILLER_11_213
*949 FILLER_11_221
*950 FILLER_11_229
*951 FILLER_11_237
*952 FILLER_11_239
*921 FILLER_11_24
*953 FILLER_11_241
*954 FILLER_11_249
*955 FILLER_11_257
*956 FILLER_11_265
*957 FILLER_11_273
*958 FILLER_11_281
*959 FILLER_11_289
*960 FILLER_11_297
*961 FILLER_11_299
*962 FILLER_11_301
*963 FILLER_11_309
*964 FILLER_11_317
*922 FILLER_11_32
*965 FILLER_11_325
*966 FILLER_11_333
*967 FILLER_11_341
*968 FILLER_11_345
*923 FILLER_11_40
*924 FILLER_11_48
*925 FILLER_11_56
*926 FILLER_11_61
*927 FILLER_11_69
*928 FILLER_11_77
*919 FILLER_11_8
*929 FILLER_11_85
*930 FILLER_11_93
*969 FILLER_12_0
*985 FILLER_12_107
*986 FILLER_12_115
*987 FILLER_12_123
*988 FILLER_12_131
*989 FILLER_12_139
*990 FILLER_12_147
*991 FILLER_12_149
*992 FILLER_12_151
*993 FILLER_12_159
*971 FILLER_12_16
*994 FILLER_12_167
*995 FILLER_12_175
*996 FILLER_12_183
*997 FILLER_12_191
*998 FILLER_12_199
*999 FILLER_12_207
*1000 FILLER_12_209
*1001 FILLER_12_211
*1002 FILLER_12_219
*1003 FILLER_12_227
*1004 FILLER_12_235
*972 FILLER_12_24
*1005 FILLER_12_243
*1006 FILLER_12_251
*1007 FILLER_12_259
*1008 FILLER_12_267
*1009 FILLER_12_269
*1010 FILLER_12_271
*1011 FILLER_12_279
*973 FILLER_12_28
*1012 FILLER_12_287
*1013 FILLER_12_295
*1014 FILLER_12_303
*974 FILLER_12_31
*1015 FILLER_12_311
*1016 FILLER_12_319
*1017 FILLER_12_327
*1018 FILLER_12_329
*1019 FILLER_12_331
*1020 FILLER_12_339
*975 FILLER_12_39
*976 FILLER_12_47
*977 FILLER_12_55
*978 FILLER_12_63
*979 FILLER_12_71
*980 FILLER_12_79
*970 FILLER_12_8
*981 FILLER_12_87
*982 FILLER_12_89
*983 FILLER_12_91
*984 FILLER_12_99
*1021 FILLER_13_0
*1034 FILLER_13_101
*1035 FILLER_13_109
*1036 FILLER_13_117
*1037 FILLER_13_119
*1038 FILLER_13_121
*1039 FILLER_13_129
*1040 FILLER_13_137
*1041 FILLER_13_145
*1042 FILLER_13_153
*1023 FILLER_13_16
*1043 FILLER_13_161
*1044 FILLER_13_169
*1045 FILLER_13_177
*1046 FILLER_13_179
*1047 FILLER_13_181
*1048 FILLER_13_189
*1049 FILLER_13_197
*1050 FILLER_13_205
*1051 FILLER_13_213
*1052 FILLER_13_221
*1053 FILLER_13_229
*1054 FILLER_13_237
*1055 FILLER_13_239
*1024 FILLER_13_24
*1056 FILLER_13_241
*1057 FILLER_13_249
*1058 FILLER_13_257
*1059 FILLER_13_265
*1060 FILLER_13_273
*1061 FILLER_13_281
*1062 FILLER_13_289
*1063 FILLER_13_297
*1064 FILLER_13_299
*1065 FILLER_13_301
*1066 FILLER_13_309
*1067 FILLER_13_317
*1025 FILLER_13_32
*1068 FILLER_13_325
*1069 FILLER_13_333
*1070 FILLER_13_341
*1071 FILLER_13_345
*1026 FILLER_13_40
*1027 FILLER_13_48
*1028 FILLER_13_56
*1029 FILLER_13_61
*1030 FILLER_13_69
*1031 FILLER_13_77
*1022 FILLER_13_8
*1032 FILLER_13_85
*1033 FILLER_13_93
*1072 FILLER_14_0
*1088 FILLER_14_107
*1089 FILLER_14_115
*1090 FILLER_14_123
*1091 FILLER_14_131
*1092 FILLER_14_139
*1093 FILLER_14_147
*1094 FILLER_14_149
*1095 FILLER_14_151
*1096 FILLER_14_159
*1074 FILLER_14_16
*1097 FILLER_14_167
*1098 FILLER_14_175
*1099 FILLER_14_183
*1100 FILLER_14_191
*1101 FILLER_14_199
*1102 FILLER_14_207
*1103 FILLER_14_209
*1104 FILLER_14_211
*1105 FILLER_14_219
*1106 FILLER_14_227
*1107 FILLER_14_235
*1075 FILLER_14_24
*1108 FILLER_14_243
*1109 FILLER_14_251
*1110 FILLER_14_259
*1111 FILLER_14_267
*1112 FILLER_14_269
*1113 FILLER_14_271
*1114 FILLER_14_279
*1076 FILLER_14_28
*1115 FILLER_14_287
*1116 FILLER_14_295
*1117 FILLER_14_303
*1077 FILLER_14_31
*1118 FILLER_14_311
*1119 FILLER_14_319
*1120 FILLER_14_327
*1121 FILLER_14_329
*1122 FILLER_14_331
*1123 FILLER_14_339
*1078 FILLER_14_39
*1079 FILLER_14_47
*1080 FILLER_14_55
*1081 FILLER_14_63
*1082 FILLER_14_71
*1083 FILLER_14_79
*1073 FILLER_14_8
*1084 FILLER_14_87
*1085 FILLER_14_89
*1086 FILLER_14_91
*1087 FILLER_14_99
*1124 FILLER_15_0
*1137 FILLER_15_101
*1138 FILLER_15_109
*1139 FILLER_15_117
*1140 FILLER_15_119
*1141 FILLER_15_121
*1142 FILLER_15_129
*1143 FILLER_15_137
*1144 FILLER_15_145
*1145 FILLER_15_153
*1126 FILLER_15_16
*1146 FILLER_15_161
*1147 FILLER_15_169
*1148 FILLER_15_177
*1149 FILLER_15_179
*1150 FILLER_15_181
*1151 FILLER_15_189
*1152 FILLER_15_197
*1153 FILLER_15_205
*1154 FILLER_15_213
*1155 FILLER_15_221
*1156 FILLER_15_229
*1157 FILLER_15_237
*1158 FILLER_15_239
*1127 FILLER_15_24
*1159 FILLER_15_241
*1160 FILLER_15_249
*1161 FILLER_15_257
*1162 FILLER_15_265
*1163 FILLER_15_273
*1164 FILLER_15_281
*1165 FILLER_15_289
*1166 FILLER_15_297
*1167 FILLER_15_299
*1168 FILLER_15_301
*1169 FILLER_15_309
*1170 FILLER_15_317
*1128 FILLER_15_32
*1171 FILLER_15_325
*1172 FILLER_15_333
*1173 FILLER_15_341
*1174 FILLER_15_345
*1129 FILLER_15_40
*1130 FILLER_15_48
*1131 FILLER_15_56
*1132 FILLER_15_61
*1133 FILLER_15_69
*1134 FILLER_15_77
*1125 FILLER_15_8
*1135 FILLER_15_85
*1136 FILLER_15_93
*1175 FILLER_16_0
*1191 FILLER_16_107
*1192 FILLER_16_115
*1193 FILLER_16_123
*1194 FILLER_16_131
*1195 FILLER_16_139
*1196 FILLER_16_147
*1197 FILLER_16_149
*1198 FILLER_16_151
*1199 FILLER_16_159
*1177 FILLER_16_16
*1200 FILLER_16_167
*1201 FILLER_16_175
*1202 FILLER_16_183
*1203 FILLER_16_191
*1204 FILLER_16_199
*1205 FILLER_16_207
*1206 FILLER_16_209
*1207 FILLER_16_211
*1208 FILLER_16_219
*1209 FILLER_16_227
*1210 FILLER_16_235
*1178 FILLER_16_24
*1211 FILLER_16_243
*1212 FILLER_16_251
*1213 FILLER_16_259
*1214 FILLER_16_267
*1215 FILLER_16_269
*1216 FILLER_16_271
*1217 FILLER_16_279
*1179 FILLER_16_28
*1218 FILLER_16_287
*1219 FILLER_16_295
*1220 FILLER_16_303
*1180 FILLER_16_31
*1221 FILLER_16_311
*1222 FILLER_16_319
*1223 FILLER_16_327
*1224 FILLER_16_329
*1225 FILLER_16_331
*1226 FILLER_16_339
*1181 FILLER_16_39
*1182 FILLER_16_47
*1183 FILLER_16_55
*1184 FILLER_16_63
*1185 FILLER_16_71
*1186 FILLER_16_79
*1176 FILLER_16_8
*1187 FILLER_16_87
*1188 FILLER_16_89
*1189 FILLER_16_91
*1190 FILLER_16_99
*1227 FILLER_17_0
*1240 FILLER_17_101
*1241 FILLER_17_109
*1242 FILLER_17_117
*1243 FILLER_17_119
*1244 FILLER_17_121
*1245 FILLER_17_129
*1246 FILLER_17_137
*1247 FILLER_17_145
*1248 FILLER_17_153
*1229 FILLER_17_16
*1249 FILLER_17_161
*1250 FILLER_17_169
*1251 FILLER_17_177
*1252 FILLER_17_179
*1253 FILLER_17_181
*1254 FILLER_17_189
*1255 FILLER_17_197
*1256 FILLER_17_205
*1257 FILLER_17_213
*1258 FILLER_17_221
*1259 FILLER_17_229
*1260 FILLER_17_237
*1261 FILLER_17_239
*1230 FILLER_17_24
*1262 FILLER_17_241
*1263 FILLER_17_249
*1264 FILLER_17_257
*1265 FILLER_17_265
*1266 FILLER_17_273
*1267 FILLER_17_281
*1268 FILLER_17_289
*1269 FILLER_17_297
*1270 FILLER_17_299
*1271 FILLER_17_301
*1272 FILLER_17_309
*1273 FILLER_17_317
*1231 FILLER_17_32
*1274 FILLER_17_325
*1275 FILLER_17_333
*1276 FILLER_17_341
*1277 FILLER_17_345
*1232 FILLER_17_40
*1233 FILLER_17_48
*1234 FILLER_17_56
*1235 FILLER_17_61
*1236 FILLER_17_69
*1237 FILLER_17_77
*1228 FILLER_17_8
*1238 FILLER_17_85
*1239 FILLER_17_93
*1278 FILLER_18_0
*1294 FILLER_18_107
*1295 FILLER_18_115
*1296 FILLER_18_123
*1297 FILLER_18_131
*1298 FILLER_18_139
*1299 FILLER_18_147
*1300 FILLER_18_149
*1301 FILLER_18_151
*1302 FILLER_18_159
*1280 FILLER_18_16
*1303 FILLER_18_167
*1304 FILLER_18_175
*1305 FILLER_18_183
*1306 FILLER_18_191
*1307 FILLER_18_199
*1308 FILLER_18_207
*1309 FILLER_18_209
*1310 FILLER_18_211
*1311 FILLER_18_219
*1312 FILLER_18_227
*1313 FILLER_18_235
*1281 FILLER_18_24
*1314 FILLER_18_243
*1315 FILLER_18_251
*1316 FILLER_18_259
*1317 FILLER_18_267
*1318 FILLER_18_269
*1319 FILLER_18_271
*1320 FILLER_18_279
*1282 FILLER_18_28
*1321 FILLER_18_287
*1322 FILLER_18_295
*1323 FILLER_18_303
*1283 FILLER_18_31
*1324 FILLER_18_311
*1325 FILLER_18_319
*1326 FILLER_18_327
*1327 FILLER_18_329
*1328 FILLER_18_331
*1329 FILLER_18_339
*1284 FILLER_18_39
*1285 FILLER_18_47
*1286 FILLER_18_55
*1287 FILLER_18_63
*1288 FILLER_18_71
*1289 FILLER_18_79
*1279 FILLER_18_8
*1290 FILLER_18_87
*1291 FILLER_18_89
*1292 FILLER_18_91
*1293 FILLER_18_99
*1330 FILLER_19_0
*1343 FILLER_19_101
*1344 FILLER_19_109
*1345 FILLER_19_117
*1346 FILLER_19_119
*1347 FILLER_19_121
*1348 FILLER_19_129
*1349 FILLER_19_137
*1350 FILLER_19_145
*1351 FILLER_19_153
*1332 FILLER_19_16
*1352 FILLER_19_161
*1353 FILLER_19_169
*1354 FILLER_19_177
*1355 FILLER_19_179
*1356 FILLER_19_181
*1357 FILLER_19_189
*1358 FILLER_19_197
*1359 FILLER_19_205
*1360 FILLER_19_213
*1361 FILLER_19_221
*1362 FILLER_19_229
*1363 FILLER_19_237
*1364 FILLER_19_239
*1333 FILLER_19_24
*1365 FILLER_19_241
*1366 FILLER_19_249
*1367 FILLER_19_257
*1368 FILLER_19_265
*1369 FILLER_19_273
*1370 FILLER_19_281
*1371 FILLER_19_289
*1372 FILLER_19_297
*1373 FILLER_19_299
*1374 FILLER_19_301
*1375 FILLER_19_309
*1376 FILLER_19_317
*1334 FILLER_19_32
*1377 FILLER_19_325
*1378 FILLER_19_333
*1379 FILLER_19_341
*1380 FILLER_19_345
*1335 FILLER_19_40
*1336 FILLER_19_48
*1337 FILLER_19_56
*1338 FILLER_19_61
*1339 FILLER_19_69
*1340 FILLER_19_77
*1331 FILLER_19_8
*1341 FILLER_19_85
*1342 FILLER_19_93
*403 FILLER_1_0
*416 FILLER_1_101
*417 FILLER_1_109
*418 FILLER_1_117
*419 FILLER_1_119
*420 FILLER_1_121
*421 FILLER_1_129
*422 FILLER_1_137
*423 FILLER_1_145
*424 FILLER_1_153
*405 FILLER_1_16
*425 FILLER_1_161
*426 FILLER_1_169
*427 FILLER_1_177
*428 FILLER_1_179
*429 FILLER_1_181
*430 FILLER_1_189
*431 FILLER_1_197
*432 FILLER_1_205
*433 FILLER_1_213
*434 FILLER_1_221
*435 FILLER_1_229
*436 FILLER_1_237
*437 FILLER_1_239
*406 FILLER_1_24
*438 FILLER_1_241
*439 FILLER_1_249
*440 FILLER_1_257
*441 FILLER_1_265
*442 FILLER_1_273
*443 FILLER_1_281
*444 FILLER_1_289
*445 FILLER_1_297
*446 FILLER_1_299
*447 FILLER_1_301
*448 FILLER_1_309
*449 FILLER_1_317
*407 FILLER_1_32
*450 FILLER_1_325
*451 FILLER_1_333
*452 FILLER_1_341
*453 FILLER_1_345
*408 FILLER_1_40
*409 FILLER_1_48
*410 FILLER_1_56
*411 FILLER_1_61
*412 FILLER_1_69
*413 FILLER_1_77
*404 FILLER_1_8
*414 FILLER_1_85
*415 FILLER_1_93
*1381 FILLER_20_0
*1397 FILLER_20_107
*1398 FILLER_20_115
*1399 FILLER_20_123
*1400 FILLER_20_131
*1401 FILLER_20_139
*1402 FILLER_20_147
*1403 FILLER_20_149
*1404 FILLER_20_151
*1405 FILLER_20_159
*1383 FILLER_20_16
*1406 FILLER_20_167
*1407 FILLER_20_175
*1408 FILLER_20_183
*1409 FILLER_20_191
*1410 FILLER_20_199
*1411 FILLER_20_207
*1412 FILLER_20_209
*1413 FILLER_20_211
*1414 FILLER_20_219
*1415 FILLER_20_227
*1416 FILLER_20_235
*1384 FILLER_20_24
*1417 FILLER_20_243
*1418 FILLER_20_251
*1419 FILLER_20_259
*1420 FILLER_20_267
*1421 FILLER_20_269
*1422 FILLER_20_271
*1423 FILLER_20_279
*1385 FILLER_20_28
*1424 FILLER_20_287
*1425 FILLER_20_295
*1426 FILLER_20_303
*1386 FILLER_20_31
*1427 FILLER_20_311
*1428 FILLER_20_319
*1429 FILLER_20_327
*1430 FILLER_20_329
*1431 FILLER_20_331
*1432 FILLER_20_339
*1387 FILLER_20_39
*1388 FILLER_20_47
*1389 FILLER_20_55
*1390 FILLER_20_63
*1391 FILLER_20_71
*1392 FILLER_20_79
*1382 FILLER_20_8
*1393 FILLER_20_87
*1394 FILLER_20_89
*1395 FILLER_20_91
*1396 FILLER_20_99
*1433 FILLER_21_0
*1446 FILLER_21_101
*1447 FILLER_21_109
*1448 FILLER_21_117
*1449 FILLER_21_119
*1450 FILLER_21_121
*1451 FILLER_21_129
*1452 FILLER_21_137
*1453 FILLER_21_145
*1454 FILLER_21_153
*1435 FILLER_21_16
*1455 FILLER_21_161
*1456 FILLER_21_169
*1457 FILLER_21_177
*1458 FILLER_21_179
*1459 FILLER_21_181
*1460 FILLER_21_189
*1461 FILLER_21_197
*1462 FILLER_21_205
*1463 FILLER_21_213
*1464 FILLER_21_221
*1465 FILLER_21_229
*1466 FILLER_21_237
*1467 FILLER_21_239
*1436 FILLER_21_24
*1468 FILLER_21_241
*1469 FILLER_21_249
*1470 FILLER_21_257
*1471 FILLER_21_265
*1472 FILLER_21_273
*1473 FILLER_21_281
*1474 FILLER_21_289
*1475 FILLER_21_297
*1476 FILLER_21_299
*1477 FILLER_21_301
*1478 FILLER_21_309
*1479 FILLER_21_317
*1437 FILLER_21_32
*1480 FILLER_21_325
*1481 FILLER_21_333
*1482 FILLER_21_341
*1483 FILLER_21_345
*1438 FILLER_21_40
*1439 FILLER_21_48
*1440 FILLER_21_56
*1441 FILLER_21_61
*1442 FILLER_21_69
*1443 FILLER_21_77
*1434 FILLER_21_8
*1444 FILLER_21_85
*1445 FILLER_21_93
*1484 FILLER_22_0
*1500 FILLER_22_107
*1501 FILLER_22_115
*1502 FILLER_22_123
*1503 FILLER_22_131
*1504 FILLER_22_139
*1505 FILLER_22_147
*1506 FILLER_22_149
*1507 FILLER_22_151
*1508 FILLER_22_159
*1486 FILLER_22_16
*1509 FILLER_22_167
*1510 FILLER_22_175
*1511 FILLER_22_183
*1512 FILLER_22_191
*1513 FILLER_22_199
*1514 FILLER_22_207
*1515 FILLER_22_209
*1516 FILLER_22_211
*1517 FILLER_22_219
*1518 FILLER_22_227
*1519 FILLER_22_235
*1487 FILLER_22_24
*1520 FILLER_22_243
*1521 FILLER_22_251
*1522 FILLER_22_259
*1523 FILLER_22_267
*1524 FILLER_22_269
*1525 FILLER_22_271
*1526 FILLER_22_279
*1488 FILLER_22_28
*1527 FILLER_22_287
*1528 FILLER_22_295
*1529 FILLER_22_303
*1489 FILLER_22_31
*1530 FILLER_22_311
*1531 FILLER_22_319
*1532 FILLER_22_327
*1533 FILLER_22_329
*1534 FILLER_22_331
*1535 FILLER_22_339
*1490 FILLER_22_39
*1491 FILLER_22_47
*1492 FILLER_22_55
*1493 FILLER_22_63
*1494 FILLER_22_71
*1495 FILLER_22_79
*1485 FILLER_22_8
*1496 FILLER_22_87
*1497 FILLER_22_89
*1498 FILLER_22_91
*1499 FILLER_22_99
*1536 FILLER_23_0
*1549 FILLER_23_101
*1550 FILLER_23_109
*1551 FILLER_23_117
*1552 FILLER_23_119
*1553 FILLER_23_121
*1554 FILLER_23_129
*1555 FILLER_23_137
*1556 FILLER_23_145
*1557 FILLER_23_153
*1538 FILLER_23_16
*1558 FILLER_23_161
*1559 FILLER_23_169
*1560 FILLER_23_177
*1561 FILLER_23_179
*1562 FILLER_23_181
*1563 FILLER_23_189
*1564 FILLER_23_197
*1565 FILLER_23_205
*1566 FILLER_23_213
*1567 FILLER_23_221
*1568 FILLER_23_229
*1569 FILLER_23_237
*1570 FILLER_23_239
*1539 FILLER_23_24
*1571 FILLER_23_241
*1572 FILLER_23_249
*1573 FILLER_23_257
*1574 FILLER_23_265
*1575 FILLER_23_273
*1576 FILLER_23_281
*1577 FILLER_23_289
*1578 FILLER_23_297
*1579 FILLER_23_299
*1580 FILLER_23_301
*1581 FILLER_23_309
*1582 FILLER_23_317
*1540 FILLER_23_32
*1583 FILLER_23_325
*1584 FILLER_23_333
*1585 FILLER_23_341
*1586 FILLER_23_345
*1541 FILLER_23_40
*1542 FILLER_23_48
*1543 FILLER_23_56
*1544 FILLER_23_61
*1545 FILLER_23_69
*1546 FILLER_23_77
*1537 FILLER_23_8
*1547 FILLER_23_85
*1548 FILLER_23_93
*1587 FILLER_24_0
*1603 FILLER_24_107
*1604 FILLER_24_115
*1605 FILLER_24_123
*1606 FILLER_24_131
*1607 FILLER_24_139
*1608 FILLER_24_147
*1609 FILLER_24_149
*1610 FILLER_24_151
*1611 FILLER_24_159
*1589 FILLER_24_16
*1612 FILLER_24_167
*1613 FILLER_24_175
*1614 FILLER_24_183
*1615 FILLER_24_191
*1616 FILLER_24_199
*1617 FILLER_24_207
*1618 FILLER_24_209
*1619 FILLER_24_211
*1620 FILLER_24_219
*1621 FILLER_24_227
*1622 FILLER_24_235
*1590 FILLER_24_24
*1623 FILLER_24_243
*1624 FILLER_24_251
*1625 FILLER_24_259
*1626 FILLER_24_267
*1627 FILLER_24_269
*1628 FILLER_24_271
*1629 FILLER_24_279
*1591 FILLER_24_28
*1630 FILLER_24_287
*1631 FILLER_24_295
*1632 FILLER_24_303
*1592 FILLER_24_31
*1633 FILLER_24_311
*1634 FILLER_24_319
*1635 FILLER_24_327
*1636 FILLER_24_329
*1637 FILLER_24_331
*1638 FILLER_24_339
*1593 FILLER_24_39
*1594 FILLER_24_47
*1595 FILLER_24_55
*1596 FILLER_24_63
*1597 FILLER_24_71
*1598 FILLER_24_79
*1588 FILLER_24_8
*1599 FILLER_24_87
*1600 FILLER_24_89
*1601 FILLER_24_91
*1602 FILLER_24_99
*1639 FILLER_25_0
*1652 FILLER_25_101
*1653 FILLER_25_109
*1654 FILLER_25_117
*1655 FILLER_25_119
*1656 FILLER_25_121
*1657 FILLER_25_129
*1658 FILLER_25_137
*1659 FILLER_25_145
*1660 FILLER_25_153
*1641 FILLER_25_16
*1661 FILLER_25_161
*1662 FILLER_25_169
*1663 FILLER_25_177
*1664 FILLER_25_179
*1665 FILLER_25_181
*1666 FILLER_25_189
*1667 FILLER_25_197
*1668 FILLER_25_205
*1669 FILLER_25_213
*1670 FILLER_25_221
*1671 FILLER_25_229
*1672 FILLER_25_237
*1673 FILLER_25_239
*1642 FILLER_25_24
*1674 FILLER_25_241
*1675 FILLER_25_249
*1676 FILLER_25_257
*1677 FILLER_25_265
*1678 FILLER_25_273
*1679 FILLER_25_281
*1680 FILLER_25_289
*1681 FILLER_25_297
*1682 FILLER_25_299
*1683 FILLER_25_301
*1684 FILLER_25_309
*1685 FILLER_25_317
*1643 FILLER_25_32
*1686 FILLER_25_325
*1687 FILLER_25_333
*1688 FILLER_25_341
*1689 FILLER_25_345
*1644 FILLER_25_40
*1645 FILLER_25_48
*1646 FILLER_25_56
*1647 FILLER_25_61
*1648 FILLER_25_69
*1649 FILLER_25_77
*1640 FILLER_25_8
*1650 FILLER_25_85
*1651 FILLER_25_93
*1690 FILLER_26_0
*1706 FILLER_26_107
*1707 FILLER_26_115
*1708 FILLER_26_123
*1709 FILLER_26_131
*1710 FILLER_26_139
*1711 FILLER_26_147
*1712 FILLER_26_149
*1713 FILLER_26_151
*1714 FILLER_26_159
*1692 FILLER_26_16
*1715 FILLER_26_167
*1716 FILLER_26_175
*1717 FILLER_26_183
*1718 FILLER_26_191
*1719 FILLER_26_199
*1720 FILLER_26_207
*1721 FILLER_26_209
*1722 FILLER_26_211
*1723 FILLER_26_219
*1724 FILLER_26_227
*1725 FILLER_26_235
*1693 FILLER_26_24
*1726 FILLER_26_243
*1727 FILLER_26_251
*1728 FILLER_26_259
*1729 FILLER_26_267
*1730 FILLER_26_269
*1731 FILLER_26_271
*1732 FILLER_26_279
*1694 FILLER_26_28
*1733 FILLER_26_287
*1734 FILLER_26_295
*1735 FILLER_26_303
*1695 FILLER_26_31
*1736 FILLER_26_311
*1737 FILLER_26_319
*1738 FILLER_26_327
*1739 FILLER_26_329
*1740 FILLER_26_331
*1741 FILLER_26_339
*1696 FILLER_26_39
*1697 FILLER_26_47
*1698 FILLER_26_55
*1699 FILLER_26_63
*1700 FILLER_26_71
*1701 FILLER_26_79
*1691 FILLER_26_8
*1702 FILLER_26_87
*1703 FILLER_26_89
*1704 FILLER_26_91
*1705 FILLER_26_99
*1742 FILLER_27_0
*1755 FILLER_27_101
*1756 FILLER_27_109
*1757 FILLER_27_117
*1758 FILLER_27_119
*1759 FILLER_27_121
*1760 FILLER_27_129
*1761 FILLER_27_137
*1762 FILLER_27_145
*1763 FILLER_27_153
*1744 FILLER_27_16
*1764 FILLER_27_161
*1765 FILLER_27_169
*1766 FILLER_27_177
*1767 FILLER_27_179
*1768 FILLER_27_181
*1769 FILLER_27_189
*1770 FILLER_27_197
*1771 FILLER_27_205
*1772 FILLER_27_213
*1773 FILLER_27_221
*1774 FILLER_27_229
*1775 FILLER_27_237
*1776 FILLER_27_239
*1745 FILLER_27_24
*1777 FILLER_27_241
*1778 FILLER_27_249
*1779 FILLER_27_257
*1780 FILLER_27_265
*1781 FILLER_27_273
*1782 FILLER_27_281
*1783 FILLER_27_289
*1784 FILLER_27_297
*1785 FILLER_27_299
*1786 FILLER_27_301
*1787 FILLER_27_309
*1788 FILLER_27_317
*1746 FILLER_27_32
*1789 FILLER_27_325
*1790 FILLER_27_333
*1791 FILLER_27_341
*1792 FILLER_27_345
*1747 FILLER_27_40
*1748 FILLER_27_48
*1749 FILLER_27_56
*1750 FILLER_27_61
*1751 FILLER_27_69
*1752 FILLER_27_77
*1743 FILLER_27_8
*1753 FILLER_27_85
*1754 FILLER_27_93
*1793 FILLER_28_0
*1809 FILLER_28_107
*1810 FILLER_28_115
*1811 FILLER_28_123
*1812 FILLER_28_131
*1813 FILLER_28_133
*1814 FILLER_28_151
*1815 FILLER_28_159
*1795 FILLER_28_16
*1816 FILLER_28_167
*1817 FILLER_28_181
*1818 FILLER_28_185
*1819 FILLER_28_202
*1820 FILLER_28_211
*1821 FILLER_28_219
*1822 FILLER_28_227
*1823 FILLER_28_235
*1796 FILLER_28_24
*1824 FILLER_28_243
*1825 FILLER_28_251
*1826 FILLER_28_259
*1827 FILLER_28_267
*1828 FILLER_28_269
*1829 FILLER_28_271
*1830 FILLER_28_279
*1797 FILLER_28_28
*1831 FILLER_28_287
*1832 FILLER_28_295
*1833 FILLER_28_303
*1798 FILLER_28_31
*1834 FILLER_28_311
*1835 FILLER_28_319
*1836 FILLER_28_327
*1837 FILLER_28_329
*1838 FILLER_28_331
*1839 FILLER_28_339
*1799 FILLER_28_39
*1800 FILLER_28_47
*1801 FILLER_28_55
*1802 FILLER_28_63
*1803 FILLER_28_71
*1804 FILLER_28_79
*1794 FILLER_28_8
*1805 FILLER_28_87
*1806 FILLER_28_89
*1807 FILLER_28_91
*1808 FILLER_28_99
*1840 FILLER_29_0
*1853 FILLER_29_101
*1854 FILLER_29_109
*1855 FILLER_29_117
*1856 FILLER_29_119
*1857 FILLER_29_121
*1858 FILLER_29_129
*1859 FILLER_29_137
*1860 FILLER_29_145
*1861 FILLER_29_153
*1842 FILLER_29_16
*1862 FILLER_29_161
*1863 FILLER_29_169
*1864 FILLER_29_177
*1865 FILLER_29_179
*1866 FILLER_29_181
*1867 FILLER_29_189
*1868 FILLER_29_197
*1869 FILLER_29_205
*1870 FILLER_29_213
*1871 FILLER_29_221
*1872 FILLER_29_229
*1873 FILLER_29_237
*1874 FILLER_29_239
*1843 FILLER_29_24
*1875 FILLER_29_241
*1876 FILLER_29_249
*1877 FILLER_29_257
*1878 FILLER_29_265
*1879 FILLER_29_273
*1880 FILLER_29_281
*1881 FILLER_29_289
*1882 FILLER_29_297
*1883 FILLER_29_299
*1884 FILLER_29_301
*1885 FILLER_29_309
*1886 FILLER_29_317
*1844 FILLER_29_32
*1887 FILLER_29_325
*1888 FILLER_29_333
*1889 FILLER_29_341
*1890 FILLER_29_345
*1845 FILLER_29_40
*1846 FILLER_29_48
*1847 FILLER_29_56
*1848 FILLER_29_61
*1849 FILLER_29_69
*1850 FILLER_29_77
*1841 FILLER_29_8
*1851 FILLER_29_85
*1852 FILLER_29_93
*454 FILLER_2_0
*470 FILLER_2_107
*471 FILLER_2_115
*472 FILLER_2_123
*473 FILLER_2_131
*474 FILLER_2_139
*475 FILLER_2_147
*476 FILLER_2_149
*477 FILLER_2_151
*478 FILLER_2_159
*456 FILLER_2_16
*479 FILLER_2_167
*480 FILLER_2_175
*481 FILLER_2_183
*482 FILLER_2_191
*483 FILLER_2_199
*484 FILLER_2_207
*485 FILLER_2_209
*486 FILLER_2_211
*487 FILLER_2_219
*488 FILLER_2_227
*489 FILLER_2_235
*457 FILLER_2_24
*490 FILLER_2_243
*491 FILLER_2_251
*492 FILLER_2_259
*493 FILLER_2_267
*494 FILLER_2_269
*495 FILLER_2_271
*496 FILLER_2_279
*458 FILLER_2_28
*497 FILLER_2_287
*498 FILLER_2_295
*499 FILLER_2_303
*459 FILLER_2_31
*500 FILLER_2_311
*501 FILLER_2_319
*502 FILLER_2_327
*503 FILLER_2_329
*504 FILLER_2_331
*505 FILLER_2_339
*460 FILLER_2_39
*461 FILLER_2_47
*462 FILLER_2_55
*463 FILLER_2_63
*464 FILLER_2_71
*465 FILLER_2_79
*455 FILLER_2_8
*466 FILLER_2_87
*467 FILLER_2_89
*468 FILLER_2_91
*469 FILLER_2_99
*1891 FILLER_30_0
*1907 FILLER_30_107
*1908 FILLER_30_115
*1909 FILLER_30_123
*1910 FILLER_30_131
*1911 FILLER_30_139
*1912 FILLER_30_147
*1913 FILLER_30_149
*1914 FILLER_30_151
*1915 FILLER_30_159
*1893 FILLER_30_16
*1916 FILLER_30_167
*1917 FILLER_30_175
*1918 FILLER_30_183
*1919 FILLER_30_191
*1920 FILLER_30_199
*1921 FILLER_30_207
*1922 FILLER_30_209
*1923 FILLER_30_211
*1924 FILLER_30_219
*1925 FILLER_30_227
*1926 FILLER_30_235
*1894 FILLER_30_24
*1927 FILLER_30_243
*1928 FILLER_30_251
*1929 FILLER_30_259
*1930 FILLER_30_267
*1931 FILLER_30_269
*1932 FILLER_30_271
*1933 FILLER_30_279
*1895 FILLER_30_28
*1934 FILLER_30_287
*1935 FILLER_30_295
*1936 FILLER_30_303
*1896 FILLER_30_31
*1937 FILLER_30_311
*1938 FILLER_30_319
*1939 FILLER_30_327
*1940 FILLER_30_329
*1941 FILLER_30_331
*1942 FILLER_30_339
*1897 FILLER_30_39
*1898 FILLER_30_47
*1899 FILLER_30_55
*1900 FILLER_30_63
*1901 FILLER_30_71
*1902 FILLER_30_79
*1892 FILLER_30_8
*1903 FILLER_30_87
*1904 FILLER_30_89
*1905 FILLER_30_91
*1906 FILLER_30_99
*1943 FILLER_31_0
*1956 FILLER_31_101
*1957 FILLER_31_109
*1958 FILLER_31_117
*1959 FILLER_31_119
*1960 FILLER_31_121
*1961 FILLER_31_129
*1962 FILLER_31_137
*1963 FILLER_31_145
*1964 FILLER_31_153
*1945 FILLER_31_16
*1965 FILLER_31_161
*1966 FILLER_31_169
*1967 FILLER_31_177
*1968 FILLER_31_179
*1969 FILLER_31_181
*1970 FILLER_31_189
*1971 FILLER_31_197
*1972 FILLER_31_205
*1973 FILLER_31_213
*1974 FILLER_31_221
*1975 FILLER_31_229
*1976 FILLER_31_237
*1977 FILLER_31_239
*1946 FILLER_31_24
*1978 FILLER_31_241
*1979 FILLER_31_249
*1980 FILLER_31_257
*1981 FILLER_31_265
*1982 FILLER_31_273
*1983 FILLER_31_281
*1984 FILLER_31_289
*1985 FILLER_31_297
*1986 FILLER_31_299
*1987 FILLER_31_301
*1988 FILLER_31_309
*1989 FILLER_31_317
*1947 FILLER_31_32
*1990 FILLER_31_325
*1991 FILLER_31_333
*1992 FILLER_31_341
*1993 FILLER_31_345
*1948 FILLER_31_40
*1949 FILLER_31_48
*1950 FILLER_31_56
*1951 FILLER_31_61
*1952 FILLER_31_69
*1953 FILLER_31_77
*1944 FILLER_31_8
*1954 FILLER_31_85
*1955 FILLER_31_93
*1994 FILLER_32_0
*2010 FILLER_32_107
*2011 FILLER_32_115
*2012 FILLER_32_123
*2013 FILLER_32_131
*2014 FILLER_32_139
*2015 FILLER_32_147
*2016 FILLER_32_149
*2017 FILLER_32_151
*2018 FILLER_32_159
*1996 FILLER_32_16
*2019 FILLER_32_167
*2020 FILLER_32_175
*2021 FILLER_32_183
*2022 FILLER_32_191
*2023 FILLER_32_199
*2024 FILLER_32_207
*2025 FILLER_32_209
*2026 FILLER_32_211
*2027 FILLER_32_219
*2028 FILLER_32_227
*2029 FILLER_32_235
*1997 FILLER_32_24
*2030 FILLER_32_243
*2031 FILLER_32_251
*2032 FILLER_32_259
*2033 FILLER_32_267
*2034 FILLER_32_269
*2035 FILLER_32_271
*2036 FILLER_32_279
*1998 FILLER_32_28
*2037 FILLER_32_287
*2038 FILLER_32_295
*2039 FILLER_32_303
*1999 FILLER_32_31
*2040 FILLER_32_311
*2041 FILLER_32_319
*2042 FILLER_32_327
*2043 FILLER_32_329
*2044 FILLER_32_331
*2045 FILLER_32_339
*2000 FILLER_32_39
*2001 FILLER_32_47
*2002 FILLER_32_55
*2003 FILLER_32_63
*2004 FILLER_32_71
*2005 FILLER_32_79
*1995 FILLER_32_8
*2006 FILLER_32_87
*2007 FILLER_32_89
*2008 FILLER_32_91
*2009 FILLER_32_99
*2046 FILLER_33_0
*2059 FILLER_33_101
*2060 FILLER_33_109
*2061 FILLER_33_117
*2062 FILLER_33_119
*2063 FILLER_33_121
*2064 FILLER_33_129
*2065 FILLER_33_137
*2066 FILLER_33_145
*2067 FILLER_33_153
*2048 FILLER_33_16
*2068 FILLER_33_161
*2069 FILLER_33_169
*2070 FILLER_33_177
*2071 FILLER_33_179
*2072 FILLER_33_181
*2073 FILLER_33_189
*2074 FILLER_33_197
*2075 FILLER_33_205
*2076 FILLER_33_213
*2077 FILLER_33_221
*2078 FILLER_33_229
*2079 FILLER_33_237
*2080 FILLER_33_239
*2049 FILLER_33_24
*2081 FILLER_33_241
*2082 FILLER_33_249
*2083 FILLER_33_257
*2084 FILLER_33_265
*2085 FILLER_33_273
*2086 FILLER_33_281
*2087 FILLER_33_289
*2088 FILLER_33_297
*2089 FILLER_33_299
*2090 FILLER_33_301
*2091 FILLER_33_309
*2092 FILLER_33_317
*2050 FILLER_33_32
*2093 FILLER_33_325
*2094 FILLER_33_333
*2095 FILLER_33_341
*2096 FILLER_33_345
*2051 FILLER_33_40
*2052 FILLER_33_48
*2053 FILLER_33_56
*2054 FILLER_33_61
*2055 FILLER_33_69
*2056 FILLER_33_77
*2047 FILLER_33_8
*2057 FILLER_33_85
*2058 FILLER_33_93
*2097 FILLER_34_0
*2113 FILLER_34_107
*2114 FILLER_34_115
*2115 FILLER_34_123
*2116 FILLER_34_131
*2117 FILLER_34_139
*2118 FILLER_34_147
*2119 FILLER_34_149
*2120 FILLER_34_151
*2121 FILLER_34_159
*2099 FILLER_34_16
*2122 FILLER_34_167
*2123 FILLER_34_175
*2124 FILLER_34_183
*2125 FILLER_34_191
*2126 FILLER_34_199
*2127 FILLER_34_207
*2128 FILLER_34_209
*2129 FILLER_34_211
*2130 FILLER_34_219
*2131 FILLER_34_227
*2132 FILLER_34_235
*2100 FILLER_34_24
*2133 FILLER_34_243
*2134 FILLER_34_251
*2135 FILLER_34_259
*2136 FILLER_34_267
*2137 FILLER_34_269
*2138 FILLER_34_271
*2139 FILLER_34_279
*2101 FILLER_34_28
*2140 FILLER_34_287
*2141 FILLER_34_295
*2142 FILLER_34_303
*2102 FILLER_34_31
*2143 FILLER_34_311
*2144 FILLER_34_319
*2145 FILLER_34_327
*2146 FILLER_34_329
*2147 FILLER_34_331
*2148 FILLER_34_339
*2103 FILLER_34_39
*2104 FILLER_34_47
*2105 FILLER_34_55
*2106 FILLER_34_63
*2107 FILLER_34_71
*2108 FILLER_34_79
*2098 FILLER_34_8
*2109 FILLER_34_87
*2110 FILLER_34_89
*2111 FILLER_34_91
*2112 FILLER_34_99
*2149 FILLER_35_0
*2162 FILLER_35_101
*2163 FILLER_35_109
*2164 FILLER_35_117
*2165 FILLER_35_119
*2166 FILLER_35_121
*2167 FILLER_35_129
*2168 FILLER_35_137
*2169 FILLER_35_145
*2170 FILLER_35_153
*2151 FILLER_35_16
*2171 FILLER_35_161
*2172 FILLER_35_169
*2173 FILLER_35_177
*2174 FILLER_35_179
*2175 FILLER_35_181
*2176 FILLER_35_189
*2177 FILLER_35_197
*2178 FILLER_35_205
*2179 FILLER_35_213
*2180 FILLER_35_221
*2181 FILLER_35_229
*2182 FILLER_35_237
*2183 FILLER_35_239
*2152 FILLER_35_24
*2184 FILLER_35_241
*2185 FILLER_35_249
*2186 FILLER_35_257
*2187 FILLER_35_265
*2188 FILLER_35_273
*2189 FILLER_35_281
*2190 FILLER_35_289
*2191 FILLER_35_297
*2192 FILLER_35_299
*2193 FILLER_35_301
*2194 FILLER_35_309
*2195 FILLER_35_317
*2153 FILLER_35_32
*2196 FILLER_35_325
*2197 FILLER_35_333
*2198 FILLER_35_341
*2199 FILLER_35_345
*2154 FILLER_35_40
*2155 FILLER_35_48
*2156 FILLER_35_56
*2157 FILLER_35_61
*2158 FILLER_35_69
*2159 FILLER_35_77
*2150 FILLER_35_8
*2160 FILLER_35_85
*2161 FILLER_35_93
*2200 FILLER_36_0
*2216 FILLER_36_107
*2217 FILLER_36_115
*2218 FILLER_36_123
*2219 FILLER_36_131
*2220 FILLER_36_139
*2221 FILLER_36_147
*2222 FILLER_36_149
*2223 FILLER_36_151
*2224 FILLER_36_159
*2202 FILLER_36_16
*2225 FILLER_36_167
*2226 FILLER_36_175
*2227 FILLER_36_183
*2228 FILLER_36_191
*2229 FILLER_36_199
*2230 FILLER_36_207
*2231 FILLER_36_209
*2232 FILLER_36_211
*2233 FILLER_36_219
*2234 FILLER_36_227
*2235 FILLER_36_235
*2203 FILLER_36_24
*2236 FILLER_36_243
*2237 FILLER_36_251
*2238 FILLER_36_259
*2239 FILLER_36_267
*2240 FILLER_36_269
*2241 FILLER_36_271
*2242 FILLER_36_279
*2204 FILLER_36_28
*2243 FILLER_36_287
*2244 FILLER_36_295