* Subcircuit cmos_tg
.subckt cmos_tg net-_m1-pad1_ net-_m2-pad2_ net-_m1-pad2_ net-_m1-pad3_ 
* c:\fossee\esim\library\subcircuitlibrary\cmos_tg\cmos_tg.cir
.include PMOS-180nm.lib
.include NMOS-180nm.lib
m2 net-_m1-pad3_ net-_m2-pad2_ net-_m1-pad1_ net-_m1-pad2_ CMOSP W=100u L=100u M=1
m1 net-_m1-pad1_ net-_m1-pad2_ net-_m1-pad3_ gnd CMOSN W=100u L=100u M=1
* Control Statements

.ends cmos_tg