* Subcircuit CMOS_inverter
.subckt CMOS_inverter net-_m1-pad2_ net-_m2-pad3_ net-_m1-pad3_ net-_m1-pad1_ 
* c:\fossee\esim\library\subcircuitlibrary\cmos_inverter\cmos_inverter.cir
.include PMOS-180nm.lib
.include NMOS-180nm.lib
m2 net-_m1-pad1_ net-_m1-pad2_ net-_m2-pad3_ net-_m2-pad3_ CMOSP W=100u L=100u M=1
m1 net-_m1-pad1_ net-_m1-pad2_ net-_m1-pad3_ net-_m1-pad3_ CMOSN W=100u L=100u M=1
* Control Statements

.ends CMOS_inverter