.MODEL 2s2088u3 PNP( ls=65.000E-15 Bf=249.50 Vaf=100 Ikf=.69106 Ise=65.001E-15 Ne=1.4594 Br=10.162 Var=100 Ikr=11.394 Isc=5.0270E-12 Nc=1.3515 Nk=.79748 Re=.5 Rb=.81834 Rc=.20879 Cje=96.030E-12 Mje=.77026 Cjc=32.647E-12 Mjc=.57832 Tf=304.61E-12 Xtf=11.555 Vtf=13.588 Itf=8.1887 Tr=35.022E-9 Xtb=1.5000 Vceo=60 Icrating=0.5 mfg=Rohm )
