.dc V1 0e-00 0.01e-00 0.00001e-00 V4 0e-00 0.01e-00 0.00001e-00