.MODEL 1N5189 D( Is=0.2u Rs=0.05 N=1.373 Cjo=110p M=.35 Eg=.69 Xti=0 Iave=4 Vpk=40 )
