* Subcircuit tda7050
.subckt tda7050 net-_u1-pad1_ net-_u1-pad2_ net-_u1-pad3_ net-_u1-pad4_ net-_u1-pad5_ net-_u1-pad6_ net-_u1-pad7_ net-_u1-pad8_ 
* c:\fossee\esim\library\subcircuitlibrary\tda7050\tda7050.cir
.include lm_741.sub
x1 ? net-_u1-pad2_ net-_u1-pad1_ net-_u1-pad5_ ? net-_u1-pad7_ net-_u1-pad8_ ? lm_741
x2 ? net-_u1-pad3_ net-_u1-pad4_ net-_u1-pad8_ ? net-_u1-pad6_ net-_u1-pad5_ ? lm_741
* Control Statements

.ends tda7050