* Subcircuit Clock_pulse_generator
.include lm555n.sub

.subckt Clock_pulse_generator net-_u1-pad1_ net-_u1-pad2_ net-_u1-pad3_ net-_r3-pad1_ 
* /home/sumanto/esim-2.1/library/subcircuitlibrary/clock_pulse_generator/clock_pulse_generator.cir
r3  net-_r3-pad1_ gnd 1k
c2  net-_c2-pad1_ gnd 0.01u
x1 gnd net-_u1-pad3_ net-_r3-pad1_ net-_u1-pad1_ net-_c2-pad1_ net-_u1-pad3_ net-_u1-pad2_ net-_u1-pad1_ lm555n
* Control Statements

.ends Clock_pulse_generator