.dc vds1 0e-00 50e-00 10e-00 vgs1 0e-03 5e-03 1e-03