* Subcircuit 74LVC2G00
.subckt 74LVC2G00 net-_u1-pad1_ net-_u1-pad2_ net-_u1-pad3_ net-_u1-pad4_ net-_u1-pad5_ net-_u1-pad6_ 
* c:\fossee\esim\library\subcircuitlibrary\74lvc2g00\74lvc2g00.cir
.include CMOS_NAND.sub
x1 net-_u1-pad1_ net-_u1-pad2_ net-_u1-pad3_ CMOS_NAND
x2 net-_u1-pad4_ net-_u1-pad5_ net-_u1-pad6_ CMOS_NAND
* Control Statements

.ends 74LVC2G00