.MODEL 1N5817 D( Is=31.7u Rs=0.051 N=1.373 Cjo=190p M=0.3 Xti=2 Iave=1 Vpk=20 Eg=0.69 )
