.model emitter D(
+ Vj=1
+ Cjo=1.700E-12
+ Rs=4.755E-01
+ Is=21.3P
+ M=1.959E-01
+ N=1.8
+ Bv=1.000E+02
+ tt=3.030E-09
+ Ibv=1.000E-04
)
