.MODEL D1N750 D(
+  Vj=.75
+  Nbvl=14.976
+  Cjo=175p
+  Rs=.25
+  Isr=1.859n
+  Eg=1.11
+  M=.5516
+  Nbv=1.6989
+  N=1
+  Tbv1=-21.277u
+  Bv=8.1
+  Fc=.5
+  Ikf=0
+  Nr=2
+  Ibv=20.245m
+  Is=880.5E-18
+  Xti=3
+  Ibvl=1.9556m
)