.MODEL MV2201 D( Is=1.365p Cjo=14.93p M=.4261 Vj=0.75 Bv=25 Ibv=10u Isr=16.02p Nr=2 )
