* Subcircuit 74HC386
.subckt 74HC386 net-_u1-pad1_ net-_u1-pad2_ net-_u1-pad3_ net-_u1-pad4_ net-_u1-pad5_ net-_u1-pad6_ gnd net-_u1-pad8_ net-_u1-pad9_ net-_u1-pad10_ net-_u1-pad11_ net-_u1-pad12_ net-_u1-pad13_ gnd 
.title kicad schematic
* u16 net-_u12-pad3_ net-_u1-pad10_ d_inverter
* u12 net-_u12-pad1_ net-_u12-pad2_ net-_u12-pad3_ d_xnor
* u5 net-_u1-pad6_ net-_u11-pad2_ d_inverter
* u8 net-_u1-pad12_ net-_u13-pad1_ d_inverter
* u9 net-_u1-pad13_ net-_u13-pad2_ d_inverter
* u13 net-_u13-pad1_ net-_u13-pad2_ net-_u13-pad3_ d_xnor
* u7 net-_u1-pad9_ net-_u12-pad2_ d_inverter
* u6 net-_u1-pad8_ net-_u12-pad1_ d_inverter
* u17 net-_u13-pad3_ net-_u1-pad11_ d_inverter
* u15 net-_u11-pad3_ net-_u1-pad4_ d_inverter
* u14 net-_u10-pad3_ net-_u1-pad3_ d_inverter
* u11 net-_u11-pad1_ net-_u11-pad2_ net-_u11-pad3_ d_xnor
* u10 net-_u10-pad1_ net-_u10-pad2_ net-_u10-pad3_ d_xnor
* u4 net-_u1-pad5_ net-_u11-pad1_ d_inverter
* u2 net-_u1-pad1_ net-_u10-pad1_ d_inverter
* u3 net-_u1-pad2_ net-_u10-pad2_ d_inverter
a1 net-_u12-pad3_ net-_u1-pad10_ u16
a2 [net-_u12-pad1_ net-_u12-pad2_ ] net-_u12-pad3_ u12
a3 net-_u1-pad6_ net-_u11-pad2_ u5
a4 net-_u1-pad12_ net-_u13-pad1_ u8
a5 net-_u1-pad13_ net-_u13-pad2_ u9
a6 [net-_u13-pad1_ net-_u13-pad2_ ] net-_u13-pad3_ u13
a7 net-_u1-pad9_ net-_u12-pad2_ u7
a8 net-_u1-pad8_ net-_u12-pad1_ u6
a9 net-_u13-pad3_ net-_u1-pad11_ u17
a10 net-_u11-pad3_ net-_u1-pad4_ u15
a11 net-_u10-pad3_ net-_u1-pad3_ u14
a12 [net-_u11-pad1_ net-_u11-pad2_ ] net-_u11-pad3_ u11
a13 [net-_u10-pad1_ net-_u10-pad2_ ] net-_u10-pad3_ u10
a14 net-_u1-pad5_ net-_u11-pad1_ u4
a15 net-_u1-pad1_ net-_u10-pad1_ u2
a16 net-_u1-pad2_ net-_u10-pad2_ u3
* Schematic Name:                             d_inverter, Ngspice Name: d_inverter
.model u16 d_inverter(rise_delay=1.0e-9 fall_delay=1.0e-9 input_load=1.0e-12 )
* Schematic Name:                             d_xnor, Ngspice Name: d_xnor
.model u12 d_xnor(rise_delay=1.0e-9 fall_delay=1.0e-9 input_load=1.0e-12 )
* Schematic Name:                             d_inverter, Ngspice Name: d_inverter
.model u5 d_inverter(rise_delay=1.0e-9 fall_delay=1.0e-9 input_load=1.0e-12 )
* Schematic Name:                             d_inverter, Ngspice Name: d_inverter
.model u8 d_inverter(rise_delay=1.0e-9 fall_delay=1.0e-9 input_load=1.0e-12 )
* Schematic Name:                             d_inverter, Ngspice Name: d_inverter
.model u9 d_inverter(rise_delay=1.0e-9 fall_delay=1.0e-9 input_load=1.0e-12 )
* Schematic Name:                             d_xnor, Ngspice Name: d_xnor
.model u13 d_xnor(rise_delay=1.0e-9 fall_delay=1.0e-9 input_load=1.0e-12 )
* Schematic Name:                             d_inverter, Ngspice Name: d_inverter
.model u7 d_inverter(rise_delay=1.0e-9 fall_delay=1.0e-9 input_load=1.0e-12 )
* Schematic Name:                             d_inverter, Ngspice Name: d_inverter
.model u6 d_inverter(rise_delay=1.0e-9 fall_delay=1.0e-9 input_load=1.0e-12 )
* Schematic Name:                             d_inverter, Ngspice Name: d_inverter
.model u17 d_inverter(rise_delay=1.0e-9 fall_delay=1.0e-9 input_load=1.0e-12 )
* Schematic Name:                             d_inverter, Ngspice Name: d_inverter
.model u15 d_inverter(rise_delay=1.0e-9 fall_delay=1.0e-9 input_load=1.0e-12 )
* Schematic Name:                             d_inverter, Ngspice Name: d_inverter
.model u14 d_inverter(rise_delay=1.0e-9 fall_delay=1.0e-9 input_load=1.0e-12 )
* Schematic Name:                             d_xnor, Ngspice Name: d_xnor
.model u11 d_xnor(rise_delay=1.0e-9 fall_delay=1.0e-9 input_load=1.0e-12 )
* Schematic Name:                             d_xnor, Ngspice Name: d_xnor
.model u10 d_xnor(rise_delay=1.0e-9 fall_delay=1.0e-9 input_load=1.0e-12 )
* Schematic Name:                             d_inverter, Ngspice Name: d_inverter
.model u4 d_inverter(rise_delay=1.0e-9 fall_delay=1.0e-9 input_load=1.0e-12 )
* Schematic Name:                             d_inverter, Ngspice Name: d_inverter
.model u2 d_inverter(rise_delay=1.0e-9 fall_delay=1.0e-9 input_load=1.0e-12 )
* Schematic Name:                             d_inverter, Ngspice Name: d_inverter
.model u3 d_inverter(rise_delay=1.0e-9 fall_delay=1.0e-9 input_load=1.0e-12 )
* Control Statements

.ends 74HC386