* Subcircuit DS_blk
.subckt DS_blk net-_u1-pad1_ net-_u1-pad2_ net-_u1-pad3_ net-_u1-pad4_ net-_u1-pad5_ net-_u1-pad6_ net-_u1-pad7_ net-_u1-pad8_ 
* /home/vsduser/downloads/esim-2.3/library/subcircuitlibrary/ds_blk/ds_blk.cir
.include D_FF.sub
.include 2_in_and.sub
.include CMOS_INVTR.sub
.include NOR_2.sub
.include CMOS_Buf.sub
.include "/usr/share/local/sky130_fd_pr/models/sky130_fd_pr__model__diode_pw2nd_11v0.model.spice"
.lib "/usr/share/local/sky130_fd_pr/models/sky130.lib.spice" tt
.include "/usr/share/local/sky130_fd_pr/models/sky130_fd_pr__model__diode_pd2nw_11v0.model.spice"
.include "/usr/share/local/sky130_fd_pr/models/sky130_fd_pr__model__linear.model.spice"
.include "/usr/share/local/sky130_fd_pr/models/sky130_fd_pr__model__inductors.model.spice"
.include "/usr/share/local/sky130_fd_pr/models/sky130_fd_pr__model__r+c.model.spice"
.include "/usr/share/local/sky130_fd_pr/models/sky130_fd_pr__model__pnp.model.spice"
x1 net-_u1-pad6_ net-_u1-pad1_ net-_u1-pad2_ net-_u1-pad7_ net-_x1-pad5_ 2_in_and
x2 net-_u1-pad6_ net-_u1-pad3_ net-_u1-pad4_ net-_u1-pad7_ net-_x2-pad5_ 2_in_and
x3 net-_x1-pad5_ net-_u1-pad7_ net-_u1-pad6_ net-_x2-pad5_ net-_x3-pad5_ NOR_2
x4 net-_x3-pad5_ net-_x4-pad2_ net-_u1-pad6_ net-_u1-pad7_ net-_u1-pad8_ D_FF
* s c m o d e
x5 net-_u1-pad6_ net-_u1-pad7_ net-_u1-pad5_ net-_x5-pad4_ CMOS_Buf
x6 net-_x5-pad4_ net-_u1-pad6_ net-_u1-pad7_ net-_x4-pad2_ CMOS_INVTR
* Control Statements

.ends DS_blk