.MODEL 2n3904_NPN NPN( Is=1e-14 Xti=3  Eg=1.11  Vaf=100 Bf=200 Ne=1.307  Ise=14.34f  Ikf=.2847  Xtb=1.5  Br=6.092  Nc=2  Isc=0  Ikr=0  Rc=1  Cjc=7.306p  Mjc=.3416  Vjc=.75  Fc=.5  Cje=22.01p  Mje=.377  Vje=.75  Tr=46.91n  Tf=411.1p  Itf=.6  Vtf=1.7  Xtf=3  Rb=10  )
