.model GD_pfet pjf( vto=-4 beta=0.07 cgs=0.05 )