.MODEL 2N5401 PNP( Is=21.48f Xti=3  Eg=1.11  Vaf=100 Bf=132.1 Ne=1.375 Ise=21.48f Ikf=.1848 Xtb=1.5  Br=3.661 Nc=2  Isc=0  Ikr=0 Rc=1.6 Cjc=17.63p Mjc=.5312 Vjc=.75  Fc=.5  Cje=73.39p Mje=.3777 Vje=.75 Tr=1.476n Tf=641.9p Itf=0 Vtf=0 Xtf=0 Rb=10 Vceo=150 Icrating=600m mfg=Fairchild )
