***************************************************************************************************************************************
*SRC=1N4001G;DI_1N4001G;Diodes;Si;  50.0V  1.00A  2.00us   Diodes Inc. Glass Passivated Rectifier
.MODEL DI_1N4001G D  ( IS=65.4p RS=42.2m BV=50.0 IBV=5.00u
+ CJO=14.8p  M=0.333 N=1.36 TT=2.88u )
***************************************************************************************************************************************