* Subcircuit 74HC151
.subckt 74HC151 net-_u1-pad1_ net-_u1-pad2_ net-_u1-pad3_ net-_u1-pad4_ net-_u1-pad5_ net-_u1-pad6_ net-_u1-pad7_ gnd net-_u1-pad9_ net-_u1-pad10_ net-_u1-pad11_ net-_u1-pad12_ net-_u1-pad13_ net-_u1-pad14_ net-_u1-pad15_ gnd 
.title kicad schematic
.include 5_and.sub
* u7 net-_u4-pad2_ net-_u7-pad2_ d_inverter
* u6 net-_u1-pad7_ net-_u6-pad2_ d_inverter
* u8 net-_u3-pad2_ net-_u8-pad2_ d_inverter
* u5 net-_u2-pad2_ net-_u5-pad2_ d_inverter
* u3 net-_u1-pad11_ net-_u3-pad2_ d_inverter
* u4 net-_u1-pad10_ net-_u4-pad2_ d_inverter
* u2 net-_u1-pad9_ net-_u2-pad2_ d_inverter
x4 net-_u1-pad1_ net-_u2-pad2_ net-_u7-pad2_ net-_u8-pad2_ net-_u6-pad2_ net-_u11-pad2_ 5_and
x3 net-_u1-pad2_ net-_u2-pad2_ net-_u7-pad2_ net-_u3-pad2_ net-_u6-pad2_ net-_u11-pad1_ 5_and
x1 net-_u1-pad4_ net-_u2-pad2_ net-_u4-pad2_ net-_u3-pad2_ net-_u6-pad2_ net-_u9-pad1_ 5_and
x2 net-_u1-pad3_ net-_u2-pad2_ net-_u4-pad2_ net-_u8-pad2_ net-_u6-pad2_ net-_u9-pad2_ 5_and
* u12 net-_u1-pad6_ net-_u1-pad5_ d_inverter
x8 net-_u1-pad12_ net-_u7-pad2_ net-_u8-pad2_ net-_u5-pad2_ net-_u6-pad2_ net-_u16-pad2_ 5_and
x7 net-_u1-pad13_ net-_u7-pad2_ net-_u5-pad2_ net-_u3-pad2_ net-_u6-pad2_ net-_u16-pad1_ 5_and
x6 net-_u1-pad14_ net-_u4-pad2_ net-_u8-pad2_ net-_u5-pad2_ net-_u6-pad2_ net-_u14-pad2_ 5_and
x5 net-_u1-pad15_ net-_u4-pad2_ net-_u5-pad2_ net-_u3-pad2_ net-_u6-pad2_ net-_u14-pad1_ 5_and
* u14 net-_u14-pad1_ net-_u14-pad2_ net-_u14-pad3_ d_nor
* u15 net-_u14-pad3_ net-_u15-pad2_ net-_u13-pad2_ d_nor
* u16 net-_u16-pad1_ net-_u16-pad2_ net-_u15-pad2_ d_nor
* u13 net-_u10-pad3_ net-_u13-pad2_ net-_u1-pad6_ d_nor
* u9 net-_u9-pad1_ net-_u9-pad2_ net-_u10-pad1_ d_nor
* u11 net-_u11-pad1_ net-_u11-pad2_ net-_u10-pad2_ d_nor
* u10 net-_u10-pad1_ net-_u10-pad2_ net-_u10-pad3_ d_nor
a1 net-_u4-pad2_ net-_u7-pad2_ u7
a2 net-_u1-pad7_ net-_u6-pad2_ u6
a3 net-_u3-pad2_ net-_u8-pad2_ u8
a4 net-_u2-pad2_ net-_u5-pad2_ u5
a5 net-_u1-pad11_ net-_u3-pad2_ u3
a6 net-_u1-pad10_ net-_u4-pad2_ u4
a7 net-_u1-pad9_ net-_u2-pad2_ u2
a8 net-_u1-pad6_ net-_u1-pad5_ u12
a9 [net-_u14-pad1_ net-_u14-pad2_ ] net-_u14-pad3_ u14
a10 [net-_u14-pad3_ net-_u15-pad2_ ] net-_u13-pad2_ u15
a11 [net-_u16-pad1_ net-_u16-pad2_ ] net-_u15-pad2_ u16
a12 [net-_u10-pad3_ net-_u13-pad2_ ] net-_u1-pad6_ u13
a13 [net-_u9-pad1_ net-_u9-pad2_ ] net-_u10-pad1_ u9
a14 [net-_u11-pad1_ net-_u11-pad2_ ] net-_u10-pad2_ u11
a15 [net-_u10-pad1_ net-_u10-pad2_ ] net-_u10-pad3_ u10
* Schematic Name:                             d_inverter, Ngspice Name: d_inverter
.model u7 d_inverter(rise_delay=1.0e-9 fall_delay=1.0e-9 input_load=1.0e-12 )
* Schematic Name:                             d_inverter, Ngspice Name: d_inverter
.model u6 d_inverter(rise_delay=1.0e-9 fall_delay=1.0e-9 input_load=1.0e-12 )
* Schematic Name:                             d_inverter, Ngspice Name: d_inverter
.model u8 d_inverter(rise_delay=1.0e-9 fall_delay=1.0e-9 input_load=1.0e-12 )
* Schematic Name:                             d_inverter, Ngspice Name: d_inverter
.model u5 d_inverter(rise_delay=1.0e-9 fall_delay=1.0e-9 input_load=1.0e-12 )
* Schematic Name:                             d_inverter, Ngspice Name: d_inverter
.model u3 d_inverter(rise_delay=1.0e-9 fall_delay=1.0e-9 input_load=1.0e-12 )
* Schematic Name:                             d_inverter, Ngspice Name: d_inverter
.model u4 d_inverter(rise_delay=1.0e-9 fall_delay=1.0e-9 input_load=1.0e-12 )
* Schematic Name:                             d_inverter, Ngspice Name: d_inverter
.model u2 d_inverter(rise_delay=1.0e-9 fall_delay=1.0e-9 input_load=1.0e-12 )
* Schematic Name:                             d_inverter, Ngspice Name: d_inverter
.model u12 d_inverter(rise_delay=1.0e-9 fall_delay=1.0e-9 input_load=1.0e-12 )
* Schematic Name:                             d_nor, Ngspice Name: d_nor
.model u14 d_nor(rise_delay=1.0e-9 fall_delay=1.0e-9 input_load=1.0e-12 )
* Schematic Name:                             d_nor, Ngspice Name: d_nor
.model u15 d_nor(rise_delay=1.0e-9 fall_delay=1.0e-9 input_load=1.0e-12 )
* Schematic Name:                             d_nor, Ngspice Name: d_nor
.model u16 d_nor(rise_delay=1.0e-9 fall_delay=1.0e-9 input_load=1.0e-12 )
* Schematic Name:                             d_nor, Ngspice Name: d_nor
.model u13 d_nor(rise_delay=1.0e-9 fall_delay=1.0e-9 input_load=1.0e-12 )
* Schematic Name:                             d_nor, Ngspice Name: d_nor
.model u9 d_nor(rise_delay=1.0e-9 fall_delay=1.0e-9 input_load=1.0e-12 )
* Schematic Name:                             d_nor, Ngspice Name: d_nor
.model u11 d_nor(rise_delay=1.0e-9 fall_delay=1.0e-9 input_load=1.0e-12 )
* Schematic Name:                             d_nor, Ngspice Name: d_nor
.model u10 d_nor(rise_delay=1.0e-9 fall_delay=1.0e-9 input_load=1.0e-12 )
* Control Statements

.ends 74HC151