.MODEL 2N3055 NPN( Bf=73 Br=2.66 Rb=0.81 Rc=0.0856 Re=0.000856 CJC=1000P PC=0.75 MC=0.33 Tr=0.5703U Is=2.37E-8 CJE=415P PE=0.75 ME=0.5 TF=99.52N NE=1.26 IK=1 Vceo=60 Icrating=10 mfg=STMicro )
