.model mos_p PMOS( TPG=-1 TOX=9.5n CJ=950u ETA=0.025 VMAX=0.3u 
+ GAMMA=0.52 CGSO=0.35n LD=70n MJSW=0.25 PB=1 
+ CGBO=0.45n XJ=0.2U CGDO=0.35n KAPPA=8.0 LEVEL=3 
+ VTO=-0.6 NFS=6.50E11 THETA=0.2 CJSW=0.2n PHI=0.7 
+ RSH=2.5 MJ=0.5 UO=130 KP=48u DELTA=0.25 
+ NSUB=1.0E17 )