.dc v1 0e-00 5e-00 0.05e-00 i1 0e-03 5e-03 1e-03