.MODEL 2n4124 NPN( Is=6.734f Xti=3  Eg=1.11  Vaf=74.03  Bf=495 Ne=1.28 Ise=6.734f Ikf=69.35m Xtb=1.5  Br=.7214 Nc=2  Isc=0  Ikr=0  Rc=1  Cjc=3.638p Mjc=.3085 Vjc=.75  Fc=.5  Cje=4.493p Mje=.2593 Vje=.75  Tr=238.3m Tf=301.3p Itf=.4 Vtf=4 Xtf=2 Rb=10  Vceo=25 Icrating=200m mfg=Fairchild )
