.model 1N5819 D(IS=390n RS=0.115 BV=40.0 IBV=1.00m CJO=203p M=0.333 N=1.70 TT=4.32u)
