* -130mA, -50V, P-channel Enhancement Mode MOSFET (Complement to 2N7002)
.MODEL BSS84 PMOS( LEVEL=3 L=2.0000E-6 W=12.0000E-3
+ VTO=-1.5 KP=2.4045E-2 GAMMA=3.6937E-2 PHI=.75
+ IS=1.0000E-21 ISR=1.5173E-10 PB=.8
+ RS=1.3500E-1 RD=4.1481 RSH=6.0241
+ CJ=5.2166E-4 CJSW=2.0305E-9 MJ=.3748 MJSW=.3259
+ CGSO=1.3855E-9 CGDO=1.0000E-11 CGBO=1.7056E-10 )