.subckt CD4020 q12 q13 q14 q6 q5 q7 q4 ? q1 clk rst q9 q8 q10 q11 ?
.include tff.sub
x1 vdd clk q1 rst tff
x2 vdd q1 q2 rst tff
x3 vdd q2 q3 rst tff
x4 vdd q3 q4 rst tff
x5 vdd q4 q5 rst tff
x6 vdd q5 q6 rst tff
x7 vdd q6 q7 rst tff
x8 vdd q7 q8 rst tff
x9 vdd q8 q9 rst tff
x10 vdd q9 q10 rst tff
x11 vdd q10 q11 rst tff
x12 vdd q11 q12 rst tff
v1  vdd gnd 5v
x13 vdd q12 q13 rst tff
x14 vdd q13 q14 rst tff
.ends