.model LED D(is=4.36625E-25 rs=3.00014 n=1.38167 tt=3.030E-09 cjo=1.700E-12 vj=1 m=1.959E-01 bv=1.000E+02 ibv=1.000E-04)

