.MODEL J2N3819 NJF(BETA=1.304m BETATCE=-.5 RD=1 RS=1 LAMBDA=2.25m VTO=-2.1)
