
.MODEL D1N750 D(IS=880.5E-18 RS=.25 IKF=0 N=1 XTI=3 EG=1.11 CJO=175p)
