.MODEL eSim_BlueLED D( Is=1e-10 Rs=0.1 N=6.68 tt=4e-6 Cjo=3e-12 M=0.5 Vj=0.7 Bv=5 Ibv=10e-6 Fc=0.5 Cp=0.0e-12 Isr=0.0 Nr=2.0 Temp=26.85 Kf=0.0 Af=1.0 Ffe=1.0 Xti=3.0 Eg=1.11 Tbv=0.0 Trs=0.0 Ttt1=0.0 Ttt2=0.0 Tm1=0.0 Tm2=0.0 Tnom=26.85 Area=1.0 )


