* Subcircuit SN74LS461
.subckt SN74LS461 net-_u2-pad1_ net-_u3-pad1_ net-_u59-pad3_ net-_u59-pad4_ net-_u59-pad5_ net-_u59-pad6_ net-_u59-pad7_ net-_u59-pad8_ net-_u59-pad9_ net-_u59-pad10_ net-_u1-pad1_ net-_u58-pad1_ net-_u57-pad2_ net-_u55-pad3_ net-_u54-pad3_ net-_u53-pad3_ net-_u52-pad3_ net-_u51-pad3_ net-_u50-pad3_ net-_u49-pad3_ net-_u48-pad3_ net-_u56-pad1_ 
.title kicad schematic
.include 3_and.sub
.include 4_and.sub
* u15 net-_u15-pad1_ net-_u13-pad2_ net-_u15-pad3_ d_and
x10 net-_u29-pad2_ net-_u13-pad1_ net-_u13-pad2_ net-_u1-pad2_ net-_u30-pad2_ 4_and
x4 net-_u4-pad2_ net-_u1-pad2_ net-_u59-pad5_ net-_u23-pad2_ 3_and
x11 net-_u30-pad2_ net-_u14-pad1_ net-_u13-pad2_ net-_u1-pad2_ net-_u31-pad2_ 4_and
* u16 net-_u16-pad1_ net-_u13-pad2_ net-_u16-pad3_ d_and
* u22 net-_u14-pad3_ net-_u22-pad2_ net-_u22-pad3_ d_or
x3 net-_u4-pad2_ net-_u1-pad2_ net-_u59-pad4_ net-_u22-pad2_ 3_and
x2 net-_u45-pad2_ net-_u13-pad2_ net-_u1-pad2_ net-_u29-pad2_ 3_and
* u14 net-_u14-pad1_ net-_u13-pad2_ net-_u14-pad3_ d_and
* u23 net-_u15-pad3_ net-_u23-pad2_ net-_u23-pad3_ d_or
* u30 net-_u22-pad3_ net-_u30-pad2_ net-_u30-pad3_ d_xor
* u31 net-_u23-pad3_ net-_u31-pad2_ net-_u31-pad3_ d_xor
* u32 net-_u24-pad3_ net-_u32-pad2_ net-_u32-pad3_ d_xor
* u24 net-_u16-pad3_ net-_u24-pad2_ net-_u24-pad3_ d_or
x6 net-_u4-pad2_ net-_u1-pad2_ net-_u59-pad7_ net-_u25-pad2_ 3_and
x13 net-_u32-pad2_ net-_u16-pad1_ net-_u13-pad2_ net-_u1-pad2_ net-_u33-pad2_ 4_and
* u8 net-_u16-pad1_ net-_u7-pad3_ net-_u8-pad3_ d_and
* u33 net-_u25-pad3_ net-_u33-pad2_ net-_u33-pad3_ d_xor
x12 net-_u31-pad2_ net-_u15-pad1_ net-_u13-pad2_ net-_u1-pad2_ net-_u32-pad2_ 4_and
* u17 net-_u17-pad1_ net-_u13-pad2_ net-_u17-pad3_ d_and
* u25 net-_u17-pad3_ net-_u25-pad2_ net-_u25-pad3_ d_or
x5 net-_u4-pad2_ net-_u1-pad2_ net-_u59-pad6_ net-_u24-pad2_ 3_and
* u13 net-_u13-pad1_ net-_u13-pad2_ net-_u13-pad3_ d_and
* u29 net-_u21-pad3_ net-_u29-pad2_ net-_u29-pad3_ d_xor
* u21 net-_u13-pad3_ net-_u21-pad2_ net-_u21-pad3_ d_or
x1 net-_u4-pad2_ net-_u1-pad2_ net-_u59-pad3_ net-_u21-pad2_ 3_and
* u4 net-_u13-pad2_ net-_u4-pad2_ d_inverter
* u5 net-_u13-pad1_ net-_u45-pad2_ net-_u5-pad3_ d_and
* u3 net-_u3-pad1_ net-_u13-pad2_ d_buffer
* u2 net-_u2-pad1_ net-_u2-pad2_ d_buffer
* u7 net-_u15-pad1_ net-_u6-pad3_ net-_u7-pad3_ d_and
* u6 net-_u14-pad1_ net-_u5-pad3_ net-_u6-pad3_ d_and
* u18 net-_u10-pad1_ net-_u13-pad2_ net-_u18-pad3_ d_and
* u41 net-_u33-pad3_ net-_u2-pad2_ unconnected-_u41-pad3_ unconnected-_u41-pad4_ net-_u17-pad1_ unconnected-_u41-pad6_ d_dff
* u26 net-_u18-pad3_ net-_u26-pad2_ net-_u26-pad3_ d_or
* u34 net-_u26-pad3_ net-_u34-pad2_ net-_u34-pad3_ d_xor
* u10 net-_u10-pad1_ net-_u10-pad2_ net-_u10-pad3_ d_and
* u9 net-_u17-pad1_ net-_u8-pad3_ net-_u10-pad2_ d_and
x9 net-_u4-pad2_ net-_u1-pad2_ net-_u59-pad10_ net-_u28-pad2_ 3_and
* u20 net-_u12-pad1_ net-_u13-pad2_ net-_u20-pad3_ d_and
x16 net-_u35-pad2_ net-_u11-pad1_ net-_u13-pad2_ net-_u1-pad2_ net-_u36-pad2_ 4_and
* u36 net-_u28-pad3_ net-_u36-pad2_ net-_u36-pad3_ d_xor
* u35 net-_u27-pad3_ net-_u35-pad2_ net-_u35-pad3_ d_xor
* u43 net-_u35-pad3_ net-_u2-pad2_ unconnected-_u43-pad3_ unconnected-_u43-pad4_ net-_u11-pad1_ unconnected-_u43-pad6_ d_dff
* u28 net-_u20-pad3_ net-_u28-pad2_ net-_u28-pad3_ d_or
* u44 net-_u36-pad3_ net-_u2-pad2_ unconnected-_u44-pad3_ unconnected-_u44-pad4_ net-_u12-pad1_ unconnected-_u44-pad6_ d_dff
x7 net-_u4-pad2_ net-_u1-pad2_ net-_u59-pad8_ net-_u26-pad2_ 3_and
x14 net-_u33-pad2_ net-_u17-pad1_ net-_u13-pad2_ net-_u1-pad2_ net-_u34-pad2_ 4_and
* u27 net-_u19-pad3_ net-_u27-pad2_ net-_u27-pad3_ d_or
x15 net-_u34-pad2_ net-_u10-pad1_ net-_u13-pad2_ net-_u1-pad2_ net-_u35-pad2_ 4_and
x8 net-_u4-pad2_ net-_u1-pad2_ net-_u59-pad9_ net-_u27-pad2_ 3_and
* u19 net-_u11-pad1_ net-_u13-pad2_ net-_u19-pad3_ d_and
* u12 net-_u12-pad1_ net-_u11-pad3_ net-_u12-pad3_ d_and
* u11 net-_u11-pad1_ net-_u10-pad3_ net-_u11-pad3_ d_and
* u1 net-_u1-pad1_ net-_u1-pad2_ d_buffer
* u55 net-_u12-pad1_ net-_u47-pad2_ net-_u55-pad3_ d_tristate
* u42 net-_u34-pad3_ net-_u2-pad2_ unconnected-_u42-pad3_ unconnected-_u42-pad4_ net-_u10-pad1_ unconnected-_u42-pad6_ d_dff
* u54 net-_u11-pad1_ net-_u47-pad2_ net-_u54-pad3_ d_tristate
* u57 net-_u46-pad2_ net-_u57-pad2_ d_inverter
* u58 net-_u58-pad1_ net-_u47-pad1_ d_inverter
* u47 net-_u47-pad1_ net-_u47-pad2_ d_buffer
* u46 net-_u12-pad3_ net-_u46-pad2_ d_buffer
* u53 net-_u10-pad1_ net-_u47-pad2_ net-_u53-pad3_ d_tristate
* u49 net-_u14-pad1_ net-_u47-pad2_ net-_u49-pad3_ d_tristate
* u50 net-_u15-pad1_ net-_u47-pad2_ net-_u50-pad3_ d_tristate
* u48 net-_u13-pad1_ net-_u47-pad2_ net-_u48-pad3_ d_tristate
* u56 net-_u56-pad1_ net-_u45-pad1_ d_buffer
* u38 net-_u30-pad3_ net-_u2-pad2_ unconnected-_u38-pad3_ unconnected-_u38-pad4_ net-_u14-pad1_ unconnected-_u38-pad6_ d_dff
* u37 net-_u29-pad3_ net-_u2-pad2_ unconnected-_u37-pad3_ unconnected-_u37-pad4_ net-_u13-pad1_ unconnected-_u37-pad6_ d_dff
* u45 net-_u45-pad1_ net-_u45-pad2_ d_inverter
* u40 net-_u32-pad3_ net-_u2-pad2_ unconnected-_u40-pad3_ unconnected-_u40-pad4_ net-_u16-pad1_ unconnected-_u40-pad6_ d_dff
* u52 net-_u17-pad1_ net-_u47-pad2_ net-_u52-pad3_ d_tristate
* u51 net-_u16-pad1_ net-_u47-pad2_ net-_u51-pad3_ d_tristate
* u39 net-_u31-pad3_ net-_u2-pad2_ unconnected-_u39-pad3_ unconnected-_u39-pad4_ net-_u15-pad1_ unconnected-_u39-pad6_ d_dff
a1 [net-_u15-pad1_ net-_u13-pad2_ ] net-_u15-pad3_ u15
a2 [net-_u16-pad1_ net-_u13-pad2_ ] net-_u16-pad3_ u16
a3 [net-_u14-pad3_ net-_u22-pad2_ ] net-_u22-pad3_ u22
a4 [net-_u14-pad1_ net-_u13-pad2_ ] net-_u14-pad3_ u14
a5 [net-_u15-pad3_ net-_u23-pad2_ ] net-_u23-pad3_ u23
a6 [net-_u22-pad3_ net-_u30-pad2_ ] net-_u30-pad3_ u30
a7 [net-_u23-pad3_ net-_u31-pad2_ ] net-_u31-pad3_ u31
a8 [net-_u24-pad3_ net-_u32-pad2_ ] net-_u32-pad3_ u32
a9 [net-_u16-pad3_ net-_u24-pad2_ ] net-_u24-pad3_ u24
a10 [net-_u16-pad1_ net-_u7-pad3_ ] net-_u8-pad3_ u8
a11 [net-_u25-pad3_ net-_u33-pad2_ ] net-_u33-pad3_ u33
a12 [net-_u17-pad1_ net-_u13-pad2_ ] net-_u17-pad3_ u17
a13 [net-_u17-pad3_ net-_u25-pad2_ ] net-_u25-pad3_ u25
a14 [net-_u13-pad1_ net-_u13-pad2_ ] net-_u13-pad3_ u13
a15 [net-_u21-pad3_ net-_u29-pad2_ ] net-_u29-pad3_ u29
a16 [net-_u13-pad3_ net-_u21-pad2_ ] net-_u21-pad3_ u21
a17 net-_u13-pad2_ net-_u4-pad2_ u4
a18 [net-_u13-pad1_ net-_u45-pad2_ ] net-_u5-pad3_ u5
a19 net-_u3-pad1_ net-_u13-pad2_ u3
a20 net-_u2-pad1_ net-_u2-pad2_ u2
a21 [net-_u15-pad1_ net-_u6-pad3_ ] net-_u7-pad3_ u7
a22 [net-_u14-pad1_ net-_u5-pad3_ ] net-_u6-pad3_ u6
a23 [net-_u10-pad1_ net-_u13-pad2_ ] net-_u18-pad3_ u18
a24 net-_u33-pad3_ net-_u2-pad2_ unconnected-_u41-pad3_ unconnected-_u41-pad4_ net-_u17-pad1_ unconnected-_u41-pad6_ u41
a25 [net-_u18-pad3_ net-_u26-pad2_ ] net-_u26-pad3_ u26
a26 [net-_u26-pad3_ net-_u34-pad2_ ] net-_u34-pad3_ u34
a27 [net-_u10-pad1_ net-_u10-pad2_ ] net-_u10-pad3_ u10
a28 [net-_u17-pad1_ net-_u8-pad3_ ] net-_u10-pad2_ u9
a29 [net-_u12-pad1_ net-_u13-pad2_ ] net-_u20-pad3_ u20
a30 [net-_u28-pad3_ net-_u36-pad2_ ] net-_u36-pad3_ u36
a31 [net-_u27-pad3_ net-_u35-pad2_ ] net-_u35-pad3_ u35
a32 net-_u35-pad3_ net-_u2-pad2_ unconnected-_u43-pad3_ unconnected-_u43-pad4_ net-_u11-pad1_ unconnected-_u43-pad6_ u43
a33 [net-_u20-pad3_ net-_u28-pad2_ ] net-_u28-pad3_ u28
a34 net-_u36-pad3_ net-_u2-pad2_ unconnected-_u44-pad3_ unconnected-_u44-pad4_ net-_u12-pad1_ unconnected-_u44-pad6_ u44
a35 [net-_u19-pad3_ net-_u27-pad2_ ] net-_u27-pad3_ u27
a36 [net-_u11-pad1_ net-_u13-pad2_ ] net-_u19-pad3_ u19
a37 [net-_u12-pad1_ net-_u11-pad3_ ] net-_u12-pad3_ u12
a38 [net-_u11-pad1_ net-_u10-pad3_ ] net-_u11-pad3_ u11
a39 net-_u1-pad1_ net-_u1-pad2_ u1
a40 net-_u12-pad1_ net-_u47-pad2_ net-_u55-pad3_ u55
a41 net-_u34-pad3_ net-_u2-pad2_ unconnected-_u42-pad3_ unconnected-_u42-pad4_ net-_u10-pad1_ unconnected-_u42-pad6_ u42
a42 net-_u11-pad1_ net-_u47-pad2_ net-_u54-pad3_ u54
a43 net-_u46-pad2_ net-_u57-pad2_ u57
a44 net-_u58-pad1_ net-_u47-pad1_ u58
a45 net-_u47-pad1_ net-_u47-pad2_ u47
a46 net-_u12-pad3_ net-_u46-pad2_ u46
a47 net-_u10-pad1_ net-_u47-pad2_ net-_u53-pad3_ u53
a48 net-_u14-pad1_ net-_u47-pad2_ net-_u49-pad3_ u49
a49 net-_u15-pad1_ net-_u47-pad2_ net-_u50-pad3_ u50
a50 net-_u13-pad1_ net-_u47-pad2_ net-_u48-pad3_ u48
a51 net-_u56-pad1_ net-_u45-pad1_ u56
a52 net-_u30-pad3_ net-_u2-pad2_ unconnected-_u38-pad3_ unconnected-_u38-pad4_ net-_u14-pad1_ unconnected-_u38-pad6_ u38
a53 net-_u29-pad3_ net-_u2-pad2_ unconnected-_u37-pad3_ unconnected-_u37-pad4_ net-_u13-pad1_ unconnected-_u37-pad6_ u37
a54 net-_u45-pad1_ net-_u45-pad2_ u45
a55 net-_u32-pad3_ net-_u2-pad2_ unconnected-_u40-pad3_ unconnected-_u40-pad4_ net-_u16-pad1_ unconnected-_u40-pad6_ u40
a56 net-_u17-pad1_ net-_u47-pad2_ net-_u52-pad3_ u52
a57 net-_u16-pad1_ net-_u47-pad2_ net-_u51-pad3_ u51
a58 net-_u31-pad3_ net-_u2-pad2_ unconnected-_u39-pad3_ unconnected-_u39-pad4_ net-_u15-pad1_ unconnected-_u39-pad6_ u39
* Schematic Name:                             d_and, Ngspice Name: d_and
.model u15 d_and(rise_delay=1.0e-9 fall_delay=1.0e-9 input_load=1.0e-12 )
* Schematic Name:                             d_and, Ngspice Name: d_and
.model u16 d_and(rise_delay=1.0e-9 fall_delay=1.0e-9 input_load=1.0e-12 )
* Schematic Name:                             d_or, Ngspice Name: d_or
.model u22 d_or(rise_delay=1.0e-9 fall_delay=1.0e-9 input_load=1.0e-12 )
* Schematic Name:                             d_and, Ngspice Name: d_and
.model u14 d_and(rise_delay=1.0e-9 fall_delay=1.0e-9 input_load=1.0e-12 )
* Schematic Name:                             d_or, Ngspice Name: d_or
.model u23 d_or(rise_delay=1.0e-9 fall_delay=1.0e-9 input_load=1.0e-12 )
* Schematic Name:                             d_xor, Ngspice Name: d_xor
.model u30 d_xor(rise_delay=1.0e-9 fall_delay=1.0e-9 input_load=1.0e-12 )
* Schematic Name:                             d_xor, Ngspice Name: d_xor
.model u31 d_xor(rise_delay=1.0e-9 fall_delay=1.0e-9 input_load=1.0e-12 )
* Schematic Name:                             d_xor, Ngspice Name: d_xor
.model u32 d_xor(rise_delay=1.0e-9 fall_delay=1.0e-9 input_load=1.0e-12 )
* Schematic Name:                             d_or, Ngspice Name: d_or
.model u24 d_or(rise_delay=1.0e-9 fall_delay=1.0e-9 input_load=1.0e-12 )
* Schematic Name:                             d_and, Ngspice Name: d_and
.model u8 d_and(rise_delay=1.0e-9 fall_delay=1.0e-9 input_load=1.0e-12 )
* Schematic Name:                             d_xor, Ngspice Name: d_xor
.model u33 d_xor(rise_delay=1.0e-9 fall_delay=1.0e-9 input_load=1.0e-12 )
* Schematic Name:                             d_and, Ngspice Name: d_and
.model u17 d_and(rise_delay=1.0e-9 fall_delay=1.0e-9 input_load=1.0e-12 )
* Schematic Name:                             d_or, Ngspice Name: d_or
.model u25 d_or(rise_delay=1.0e-9 fall_delay=1.0e-9 input_load=1.0e-12 )
* Schematic Name:                             d_and, Ngspice Name: d_and
.model u13 d_and(rise_delay=1.0e-9 fall_delay=1.0e-9 input_load=1.0e-12 )
* Schematic Name:                             d_xor, Ngspice Name: d_xor
.model u29 d_xor(rise_delay=1.0e-9 fall_delay=1.0e-9 input_load=1.0e-12 )
* Schematic Name:                             d_or, Ngspice Name: d_or
.model u21 d_or(rise_delay=1.0e-9 fall_delay=1.0e-9 input_load=1.0e-12 )
* Schematic Name:                             d_inverter, Ngspice Name: d_inverter
.model u4 d_inverter(rise_delay=1.0e-9 fall_delay=1.0e-9 input_load=1.0e-12 )
* Schematic Name:                             d_and, Ngspice Name: d_and
.model u5 d_and(rise_delay=1.0e-9 fall_delay=1.0e-9 input_load=1.0e-12 )
* Schematic Name:                             d_buffer, Ngspice Name: d_buffer
.model u3 d_buffer(rise_delay=1.0e-9 fall_delay=1.0e-9 input_load=1.0e-12 )
* Schematic Name:                             d_buffer, Ngspice Name: d_buffer
.model u2 d_buffer(rise_delay=1.0e-9 fall_delay=1.0e-9 input_load=1.0e-12 )
* Schematic Name:                             d_and, Ngspice Name: d_and
.model u7 d_and(rise_delay=1.0e-9 fall_delay=1.0e-9 input_load=1.0e-12 )
* Schematic Name:                             d_and, Ngspice Name: d_and
.model u6 d_and(rise_delay=1.0e-9 fall_delay=1.0e-9 input_load=1.0e-12 )
* Schematic Name:                             d_and, Ngspice Name: d_and
.model u18 d_and(rise_delay=1.0e-9 fall_delay=1.0e-9 input_load=1.0e-12 )
* Schematic Name:                             d_dff, Ngspice Name: d_dff
.model u41 d_dff(clk_delay=1.0e-9 set_delay=1.0e-9 reset_delay=1.0 ic=0 data_load=1.0e-12 clk_load=1.0e-12 set_load=1.0e-12 reset_load=1.0e-12 rise_delay=1.0e-9 fall_delay=1.0e-9 )
* Schematic Name:                             d_or, Ngspice Name: d_or
.model u26 d_or(rise_delay=1.0e-9 fall_delay=1.0e-9 input_load=1.0e-12 )
* Schematic Name:                             d_xor, Ngspice Name: d_xor
.model u34 d_xor(rise_delay=1.0e-9 fall_delay=1.0e-9 input_load=1.0e-12 )
* Schematic Name:                             d_and, Ngspice Name: d_and
.model u10 d_and(rise_delay=1.0e-9 fall_delay=1.0e-9 input_load=1.0e-12 )
* Schematic Name:                             d_and, Ngspice Name: d_and
.model u9 d_and(rise_delay=1.0e-9 fall_delay=1.0e-9 input_load=1.0e-12 )
* Schematic Name:                             d_and, Ngspice Name: d_and
.model u20 d_and(rise_delay=1.0e-9 fall_delay=1.0e-9 input_load=1.0e-12 )
* Schematic Name:                             d_xor, Ngspice Name: d_xor
.model u36 d_xor(rise_delay=1.0e-9 fall_delay=1.0e-9 input_load=1.0e-12 )
* Schematic Name:                             d_xor, Ngspice Name: d_xor
.model u35 d_xor(rise_delay=1.0e-9 fall_delay=1.0e-9 input_load=1.0e-12 )
* Schematic Name:                             d_dff, Ngspice Name: d_dff
.model u43 d_dff(clk_delay=1.0e-9 set_delay=1.0e-9 reset_delay=1.0 ic=0 data_load=1.0e-12 clk_load=1.0e-12 set_load=1.0e-12 reset_load=1.0e-12 rise_delay=1.0e-9 fall_delay=1.0e-9 )
* Schematic Name:                             d_or, Ngspice Name: d_or
.model u28 d_or(rise_delay=1.0e-9 fall_delay=1.0e-9 input_load=1.0e-12 )
* Schematic Name:                             d_dff, Ngspice Name: d_dff
.model u44 d_dff(clk_delay=1.0e-9 set_delay=1.0e-9 reset_delay=1.0 ic=0 data_load=1.0e-12 clk_load=1.0e-12 set_load=1.0e-12 reset_load=1.0e-12 rise_delay=1.0e-9 fall_delay=1.0e-9 )
* Schematic Name:                             d_or, Ngspice Name: d_or
.model u27 d_or(rise_delay=1.0e-9 fall_delay=1.0e-9 input_load=1.0e-12 )
* Schematic Name:                             d_and, Ngspice Name: d_and
.model u19 d_and(rise_delay=1.0e-9 fall_delay=1.0e-9 input_load=1.0e-12 )
* Schematic Name:                             d_and, Ngspice Name: d_and
.model u12 d_and(rise_delay=1.0e-9 fall_delay=1.0e-9 input_load=1.0e-12 )
* Schematic Name:                             d_and, Ngspice Name: d_and
.model u11 d_and(rise_delay=1.0e-9 fall_delay=1.0e-9 input_load=1.0e-12 )
* Schematic Name:                             d_buffer, Ngspice Name: d_buffer
.model u1 d_buffer(rise_delay=1.0e-9 fall_delay=1.0e-9 input_load=1.0e-12 )
* Schematic Name:                             d_tristate, Ngspice Name: d_tristate
.model u55 d_tristate(delay=1.0e-9 input_load=1.0e-12 enable_load=1.0e-12 )
* Schematic Name:                             d_dff, Ngspice Name: d_dff
.model u42 d_dff(clk_delay=1.0e-9 set_delay=1.0e-9 reset_delay=1.0 ic=0 data_load=1.0e-12 clk_load=1.0e-12 set_load=1.0e-12 reset_load=1.0e-12 rise_delay=1.0e-9 fall_delay=1.0e-9 )
* Schematic Name:                             d_tristate, Ngspice Name: d_tristate
.model u54 d_tristate(delay=1.0e-9 input_load=1.0e-12 enable_load=1.0e-12 )
* Schematic Name:                             d_inverter, Ngspice Name: d_inverter
.model u57 d_inverter(rise_delay=1.0e-9 fall_delay=1.0e-9 input_load=1.0e-12 )
* Schematic Name:                             d_inverter, Ngspice Name: d_inverter
.model u58 d_inverter(rise_delay=1.0e-9 fall_delay=1.0e-9 input_load=1.0e-12 )
* Schematic Name:                             d_buffer, Ngspice Name: d_buffer
.model u47 d_buffer(rise_delay=1.0e-9 fall_delay=1.0e-9 input_load=1.0e-12 )
* Schematic Name:                             d_buffer, Ngspice Name: d_buffer
.model u46 d_buffer(rise_delay=1.0e-9 fall_delay=1.0e-9 input_load=1.0e-12 )
* Schematic Name:                             d_tristate, Ngspice Name: d_tristate
.model u53 d_tristate(delay=1.0e-9 input_load=1.0e-12 enable_load=1.0e-12 )
* Schematic Name:                             d_tristate, Ngspice Name: d_tristate
.model u49 d_tristate(delay=1.0e-9 input_load=1.0e-12 enable_load=1.0e-12 )
* Schematic Name:                             d_tristate, Ngspice Name: d_tristate
.model u50 d_tristate(delay=1.0e-9 input_load=1.0e-12 enable_load=1.0e-12 )
* Schematic Name:                             d_tristate, Ngspice Name: d_tristate
.model u48 d_tristate(delay=1.0e-9 input_load=1.0e-12 enable_load=1.0e-12 )
* Schematic Name:                             d_buffer, Ngspice Name: d_buffer
.model u56 d_buffer(rise_delay=1.0e-9 fall_delay=1.0e-9 input_load=1.0e-12 )
* Schematic Name:                             d_dff, Ngspice Name: d_dff
.model u38 d_dff(clk_delay=1.0e-9 set_delay=1.0e-9 reset_delay=1.0 ic=0 data_load=1.0e-12 clk_load=1.0e-12 set_load=1.0e-12 reset_load=1.0e-12 rise_delay=1.0e-9 fall_delay=1.0e-9 )
* Schematic Name:                             d_dff, Ngspice Name: d_dff
.model u37 d_dff(clk_delay=1.0e-9 set_delay=1.0e-9 reset_delay=1.0 ic=0 data_load=1.0e-12 clk_load=1.0e-12 set_load=1.0e-12 reset_load=1.0e-12 rise_delay=1.0e-9 fall_delay=1.0e-9 )
* Schematic Name:                             d_inverter, Ngspice Name: d_inverter
.model u45 d_inverter(rise_delay=1.0e-9 fall_delay=1.0e-9 input_load=1.0e-12 )
* Schematic Name:                             d_dff, Ngspice Name: d_dff
.model u40 d_dff(clk_delay=1.0e-9 set_delay=1.0e-9 reset_delay=1.0 ic=0 data_load=1.0e-12 clk_load=1.0e-12 set_load=1.0e-12 reset_load=1.0e-12 rise_delay=1.0e-9 fall_delay=1.0e-9 )
* Schematic Name:                             d_tristate, Ngspice Name: d_tristate
.model u52 d_tristate(delay=1.0e-9 input_load=1.0e-12 enable_load=1.0e-12 )
* Schematic Name:                             d_tristate, Ngspice Name: d_tristate
.model u51 d_tristate(delay=1.0e-9 input_load=1.0e-12 enable_load=1.0e-12 )
* Schematic Name:                             d_dff, Ngspice Name: d_dff
.model u39 d_dff(clk_delay=1.0e-9 set_delay=1.0e-9 reset_delay=1.0 ic=0 data_load=1.0e-12 clk_load=1.0e-12 set_load=1.0e-12 reset_load=1.0e-12 rise_delay=1.0e-9 fall_delay=1.0e-9 )
* Control Statements

.ends SN74LS461