.model 1n4148 D(is=2.495E-09 rs=4.755E-01 n=1.679E+00 tt=3.030E-09 cjo=1.700E-12 vj=1 m=1.959E-01 bv=1.000E+02 ibv=1.000E-04)

