.MODEL D_5V6 D( IS=10F N=1.16 BV=5.6 IBV=5U CJ0 = 1P TT = 10p )
