.model mos_n NMOS( TPG=1 TOX=9.5n CJ=550u ETA=0.02125 VMAX=1.8E05 
+ GAMMA=0.62 CGSO=0.3n LD=50n MJSW=0.35 PB=1.1 
+ CGBO=0.45n XJ=0.2U CGDO=0.3n KAPPA=0.1 LEVEL=3 
+ VTO=0.6 NFS=7.20E11 THETA=0.23 CJSW=0.3n PHI=0.7 
+ RSH=2.0 MJ=0.6 UO=420 KP=156u DELTA=0.88 
+ NSUB=1.40E17 )