.MODEL CBAT54 D
+ IS=16.999E-9
+ N=1.0057
+ RS=.85033
+ IKF=49.383E-3
+ CJO=9.8624E-12
+ M=1.9579
+ VJ=9.9900
+ ISR=170.34E-9
+ NR=4.9950
+ BV=30.194
+ IBV=3.9188E-3
+ TT=7.2135E-9
