* Subcircuit or_2
.subckt or_2 net-_u1-pad1_ net-_u1-pad2_ net-_u1-pad3_ net-_u1-pad4_ net-_u1-pad5_ 
* /home/vsduser/downloads/esim-2.3/library/subcircuitlibrary/or_2/or_2.cir
.include CMOS_INVTR.sub
.include NOR_2.sub
.include "/usr/share/local/sky130_fd_pr/models/sky130_fd_pr__model__diode_pd2nw_11v0.model.spice"
.include "/usr/share/local/sky130_fd_pr/models/sky130_fd_pr__model__r+c.model.spice"
.include "/usr/share/local/sky130_fd_pr/models/sky130_fd_pr__model__linear.model.spice"
.lib "/usr/share/local/sky130_fd_pr/models/sky130.lib.spice" tt
.include "/usr/share/local/sky130_fd_pr/models/sky130_fd_pr__model__diode_pw2nd_11v0.model.spice"
.include "/usr/share/local/sky130_fd_pr/models/sky130_fd_pr__model__inductors.model.spice"
.include "/usr/share/local/sky130_fd_pr/models/sky130_fd_pr__model__pnp.model.spice"
* s c m o d e
x1 net-_u1-pad1_ net-_u1-pad4_ net-_u1-pad3_ net-_u1-pad2_ net-_x1-pad5_ NOR_2
x2 net-_x1-pad5_ net-_u1-pad3_ net-_u1-pad4_ net-_u1-pad5_ CMOS_INVTR
* Control Statements

.ends or_2