* Subcircuit NOT
.subckt NOT net-_m1-pad2_ net-_m1-pad1_ 
* c:\fossee\esim\library\subcircuitlibrary\not\not.cir
.include PMOS-180nm.lib
.include NMOS-180nm.lib
m1 net-_m1-pad1_ net-_m1-pad2_ gnd gnd CMOSN W=100u L=100u M=1
m2 net-_m2-pad1_ net-_m1-pad2_ net-_m1-pad1_ net-_m2-pad1_ CMOSP W=100u L=100u M=1
v1 net-_m2-pad1_ gnd  dc 1.8
* Control Statements

.ends NOT