.model Q_PNP PNP(IS=10F NF=1.16 NR=1.16 BF=80 CJC=1P CJE=2P TF=10P TR=1N)