.model CMOSP PMOS( UB1=-7.61E-18 VSAT=1.329694E5 NFACTOR=1.9424315 CJSWG=4.22E-10 LINT=3.028832E-8 
+ WW=0 WR=1 WLN=1 PVAG=15 MJSW=0.3752089 
+ AGS=0.3641621 DSUB=0.7343015 LKETA=2.955547E-3 LW=0 RDSW=168.5705677 
+ KETA=0.0134667 CJSW=2.242609E-10 PRT=0 WL=0 LEVEL=8 
+ UA1=4.31E-9 XPART=0.5 PRDSW=11.5315407 VERSION=3.2 VTH0=-0.3938813 
+ B0=3.427126E-7 B1=1.062928E-6 W0=1E-6 U0=115.6852975 PRWG=0.5 
+ PRWB=-0.4987371 PVTH0=1.888482E-3 VOFF=-0.0994037 DVT2W=0 NLX=1.313191E-7 
+ PB=0.8421173 LLN=1 PCLM=3.2579974 PK2=1.559399E-3 KT1L=0 
+ PVSAT=50 PETA0=1E-4 WINT=0 MJ=0.4109788 MOBMOD=1 
+ WWL=0 WWN=1 UA=1.505832E-9 UC=-1E-10 DWG=-2.349633E-8 
+ ETA0=0.0608072 TOX=4.1E-9 K3=0.0993095 K2=0.0360586 K1=0.5479015 
+ PDIBLCB=-1E-3 CDSC=2.4E-4 PU0=-1.1105313 DVT0W=0 CGBO=1E-12 
+ XJ=1E-7 CGDO=6.32E-10 XL=0 CF=0 PSCBE1=1.454878E10 
+ CDSCB=0 CDSCD=0 XW=-1E-8 PDIBLC1=7.229527E-6 PDIBLC2=0.025389 
+ PUA=-4.62102E-11 PUB=1E-21 ETAB=-0.0426148 TNOM=27 MJSWG=0.3752089 
+ CJ=1.172138E-3 WKETA=0.0319301 CAPMOD=2 LWN=1 LWL=0 
+ CIT=0 PKETA=-4.346368E-3 CGSO=6.32E-10 LL=0 KT1=-0.11 
+ KT2=0.022 DROUT=0 A1=0.6859506 A0=1.7590478 A2=0.3506788 
+ UC1=-5.6E-11 UTE=-1.5 PBSWG=0.8 K3B=5.7086622 DWB=-7.152486E-9 
+ AT=3.3E4 PBSW=0.8 UB=1E-21 RSH=7.8 PSCBE2=4.202027E-9 
+ DVT1W=0 NCH=4.1589E17 DELTA=0.01 DVT2=0.1 DVT0=0.4911363 
+ DVT1=0.2227356 )