.model CMOSN NMOS( UB1=-7.61E-18 VSAT=9.366802E4 NFACTOR=2.4358891 CJSWG=3.3E-10 LINT=1.571424E-8 
+ WW=0 WR=1 WLN=1 PVAG=3.85243E-3 MJSW=0.1060414 
+ AGS=0.3939741 DSUB=0.0167075 LKETA=-0.0104078 LW=0 RDSW=105.5517558 
+ KETA=-5.180424E-4 CJSW=2.512138E-10 PRT=0 WL=0 LEVEL=8 
+ UA1=4.31E-9 XPART=0.5 PRDSW=-5 VERSION=3.2 VTH0=0.3823463 
+ B0=-6.413949E-9 B1=-1E-7 W0=1E-7 U0=280.633249 PRWG=0.5 
+ PRWB=-0.1998871 PVTH0=-1.192722E-3 VOFF=-0.0955434 DVT2W=0 NLX=1.910552E-7 
+ PB=0.8 LLN=1 PCLM=0.8073191 PK2=6.450505E-5 KT1L=0 
+ PVSAT=969.1480157 PETA0=1E-4 WINT=7.904732E-10 MJ=0.3864502 MOBMOD=1 
+ WWL=0 WWN=1 UA=-1.208537E-9 UC=5.342807E-11 DWG=1.297221E-9 
+ ETA0=3.104851E-3 TOX=4.1E-9 K3=0.0431669 K2=4.774618E-3 K1=0.5810697 
+ PDIBLCB=-0.1 CDSC=2.4E-4 PU0=6.3268729 DVT0W=0 CGBO=1E-12 
+ XJ=1E-7 CGDO=7.08E-10 XL=0 CF=0 PSCBE1=8E10 
+ CDSCB=0 CDSCD=0 XW=-1E-8 PDIBLC1=0.1666161 PDIBLC2=3.112892E-3 
+ PUA=2.226552E-11 PUB=0 ETAB=-2.512384E-5 TNOM=27 MJSWG=0.1060414 
+ CJ=9.68858E-4 WKETA=-4.27294E-4 CAPMOD=2 LWN=1 LWL=0 
+ CIT=0 PKETA=-1.049509E-3 CGSO=7.08E-10 LL=0 KT1=-0.11 
+ KT2=0.022 DROUT=0.7875618 A1=0 A0=1.7593146 A2=1 
+ UC1=-5.6E-11 UTE=-1.5 PBSWG=0.809286 K3B=1.1498346 DWB=1.479041E-9 
+ AT=3.3E4 PBSW=0.809286 UB=2.158625E-18 RSH=6.7 PSCBE2=9.213635E-10 
+ DVT1W=0 NCH=2.3549E17 DELTA=0.01 DVT2=0.0713729 DVT0=1.2894824 
+ DVT1=0.3622063 )