.MODEL DI_1N5711WS D( IS=315n RS=2.80 BV=70.0 IBV=10.0u CJO=2.00p M=0.333 N=2.03 TT=1.44n )
