.MODEL BC107 NPN( Is=1.527f Xti=3  Eg=1.11  Vaf=1.06.8 Bf=334.5 Ne=1.642 Ise=222f Ikf=0.1596 Xtb=1.5  Br=0788 Nc=2  Isc=0  Ikr=0  Rc=0.6 Cjc=6.072p Mjc=.3333 Vjc=.75  Fc=.5  Cje=10.67p Mje=.3333 Vje=.75  Tr=10n Tf=471.8p Itf=0 Vtf=0 Xtf=0 Rb=3 )
