
.model TIP41C NPN (
+ IS=1.0E-10 BF=100 NF=1.0 VAF=50 IKF=1.0
+ ISE=1.0E-11 NE=2.0 BR=1.0 NR=1.0 VAR=10 IKR=0.5
+ RE=0.5 RC=1.0 RB=1.0
+ CJE=30p VJE=0.75 MJE=0.33
+ CJC=10p VJC=0.5 MJC=0.33
+ TF=0.5n TR=1n
)
