.MODEL 1N34A D( Is=0.2u N=1.30 Rs=7 bv=75 Ibv=0.018 Cjo=0.5p Vj=0.10 M=0.27 tt=144n )