.dc v1 -1e-00 5e-00 0.02e-00 i1 -1e-03 5e-03 1e-03