.model pnp_1 PNP(
+ Vtf=1.7 
+ Cjc=1.5p
+ Nc=2 
+ Tr=46.91n 
+ Ne=1.307 
+ Cje=0.3p
+ Isc=0 
+ Xtb=1.5 
+ Rb=250
+ Rc=1 
+ Tf=411.1p 
+ Xti=3 
+ Ikr=0 
+ Bf=25
+ Fc=.5 
+ Ise=14.34f 
+ Br=6.092 
+ Ikf=.2847 
+ Mje=.377 
+ Mjc=.3416 
+ Vaf=74.03 
+ Vjc=.75 
+ Vje=.75 
+ Xtf=3 
+ Itf=.6 
+ Is=14.34f 
+ Eg=1.11 
)