* Subcircuit SLOA024B_LowPass
.subckt SLOA024B_LowPass net-_r1-pad1_ net-_u1-pad2_ net-_c2-pad1_ net-_u1-pad4_ 
* d:\fossee\esim\library\subcircuitlibrary\sloa024b_lowpass\sloa024b_lowpass.cir
.include lm_741.sub
x1 ? net-_c1-pad1_ net-_c2-pad1_ net-_u1-pad4_ ? net-_c2-pad1_ net-_u1-pad2_ ? lm_741
r1  net-_r1-pad1_ net-_c2-pad2_ 4.99k
r2  net-_c2-pad2_ net-_c1-pad1_ 12.1k
c1  net-_c1-pad1_ gnd 10n
c2  net-_c2-pad1_ net-_c2-pad2_ 82n
* Control Statements

.ends SLOA024B_LowPass