* Subcircuit CA3019
.subckt CA3019 net-_d6-pad2_ net-_d3-pad1_ net-_d5-pad2_ net-_d5-pad1_ net-_d1-pad1_ net-_d1-pad2_ unconnected-_u1-pad7_ net-_d2-pad2_ net-_d6-pad1_ 
.title kicad schematic
.include D.lib
d1 net-_d1-pad1_ net-_d1-pad2_ 1N4148
d4 net-_d1-pad1_ net-_d3-pad1_ 1N4148
d3 net-_d3-pad1_ net-_d2-pad2_ 1N4148
d6 net-_d6-pad1_ net-_d6-pad2_ 1N4148
d2 net-_d1-pad2_ net-_d2-pad2_ 1N4148
d5 net-_d5-pad1_ net-_d5-pad2_ 1N4148
* Control Statements

.ends CA3019