.model Ideal_npn2 NPN(MJE=0.337 BF=400 BR=6 IKF=0.3 VTF=1.7 ITF=0.6 CJC=0 IS=1E-14 MJC=0.33 TR=1.25e-12 CJE=0 VAF=1e12 XTF=3 RE=.2  RB=1  RC=.3 TF=12.5e-12 EG=1.11 XTB=1.5)
