.MODEL PMEG2005EB D( Is=.9985u Rs=.2146 N=.9283 Cjo=61.05p M=.4159 Vj=.1 Bv=1.000E+02 Ibv=1.000E-04 Eg=.69 Xti=2 BV=32 IBV=.001 MFG=NXP )
