.MODEL 2N4393 NJF (VTO=-1.4 BETA=0.0091 LAMBDA=0.006 RD=1 RS=1 CGS=4.1p CGD=4.6p PB=1 IS=205f AF=1 FC=0.5 BETATCE=-0.5 N=1 NR=2 XTI=3 VTOTC=-2.5m ALPHA=21u VK=1 ISR=10f KF=0.001f M=0.5)
