.MODEL DRN142S D( IS=127.76E-12 N=1.7346 RS=.1581 IKF=.14089 CJO=385.59E-15 M=.11823 VJ=.78827 ISR=139.38E-12 NR=3 BV=60 TT=275.00E-9 )
