* Standard SPICE model for 1N4148 Diode
.MODEL 1N4148 D(IS=4.35E-9 N=1.906 RS=0.6458 IKF=0 CJO=2.59E-12 M=0.333 VJ=0.5 FC=0.5 TT=3.48E-9 BV=110 IBV=0.0001)