* 115mA, 60V, N-channel Enhancement Mode MOSFET
.MODEL 2N7002 NMOS( LEVEL=1 VTO=1.50 KP=78.1m GAMMA=1.86
+ PHI=.75 LAMBDA=97.2u RD=0.280 RS=0.280
+ IS=140f PB=0.800 MJ=0.460 CBD=9.88p
+ CBS=11.9p CGSO=60.0n CGDO=50.0n CGBO=190n )

