.MODEL 1N4148 D(
+  Vj=1
+  Cjo=1.700E-12
+  Rs=4.755E-01
+  Is=2.495E-09
+  M=1.959E-01
+  N=1.679E+00
+  Bv=1.000E+02
+  tt=3.030E-09
+  Ibv=1.000E-04
)